/*--------------------------------*- C++ -*----------------------------------*\
  =========                 |
  \\      /  F ield         | OpenFOAM: The Open Source CFD Toolbox
   \\    /   O peration     | Website:  https://openfoam.org
    \\  /    A nd           | Version:  9
     \\/     M anipulation  |
\*---------------------------------------------------------------------------*/
FoamFile
{
    format      ascii;
    class       polyBoundaryMesh;
    location    "0.0001/polyMesh";
    object      boundary;
}
// * * * * * * * * * * * * * * * * * * * * * * * * * * * * * * * * * * * * * //

9
(
    ground
    {
        type            patch;
        nFaces          175;
        startFace       5744;
    }
    outlet
    {
        type            patch;
        nFaces          24;
        startFace       5919;
    }
    wall
    {
        type            patch;
        nFaces          103;
        startFace       5943;
    }
    wall2
    {
        type            patch;
        nFaces          374;
        startFace       6046;
    }
    wall3
    {
        type            patch;
        nFaces          0;
        startFace       6420;
    }
    internalPatch
    {
        type            internal;
        inGroups        List<word> 1(internal);
        nFaces          0;
        startFace       6420;
    }
    procBoundary5to4
    {
        type            processor;
        inGroups        List<word> 1(processor);
        nFaces          188;
        startFace       6420;
        matchTolerance  0.0001;
        myProcNo        5;
        neighbProcNo    4;
    }
    procBoundary5to6
    {
        type            processor;
        inGroups        List<word> 1(processor);
        nFaces          113;
        startFace       6608;
        matchTolerance  0.0001;
        myProcNo        5;
        neighbProcNo    6;
    }
    procBoundary5to7
    {
        type            processor;
        inGroups        List<word> 1(processor);
        nFaces          102;
        startFace       6721;
        matchTolerance  0.0001;
        myProcNo        5;
        neighbProcNo    7;
    }
)

// ************************************************************************* //
