/*--------------------------------*- C++ -*----------------------------------*\
  =========                 |
  \\      /  F ield         | OpenFOAM: The Open Source CFD Toolbox
   \\    /   O peration     | Website:  https://openfoam.org
    \\  /    A nd           | Version:  9
     \\/     M anipulation  |
\*---------------------------------------------------------------------------*/
FoamFile
{
    format      ascii;
    class       polyBoundaryMesh;
    location    "0.0021/polyMesh";
    object      boundary;
}
// * * * * * * * * * * * * * * * * * * * * * * * * * * * * * * * * * * * * * //

6
(
    ground
    {
        type            patch;
        nFaces          2982;
        startFace       180188;
    }
    outlet
    {
        type            patch;
        nFaces          3461;
        startFace       183170;
    }
    wall
    {
        type            patch;
        nFaces          632;
        startFace       186631;
    }
    wall2
    {
        type            patch;
        nFaces          673;
        startFace       187263;
    }
    wall3
    {
        type            patch;
        nFaces          1167;
        startFace       187936;
    }
    internalPatch
    {
        type            internal;
        inGroups        List<word> 1(internal);
        nFaces          0;
        startFace       189103;
    }
)

// ************************************************************************* //
