/*--------------------------------*- C++ -*----------------------------------*\
  =========                 |
  \\      /  F ield         | OpenFOAM: The Open Source CFD Toolbox
   \\    /   O peration     | Website:  https://openfoam.org
    \\  /    A nd           | Version:  9
     \\/     M anipulation  |
\*---------------------------------------------------------------------------*/
FoamFile
{
    format      ascii;
    class       polyBoundaryMesh;
    location    "0.0015/polyMesh";
    object      boundary;
}
// * * * * * * * * * * * * * * * * * * * * * * * * * * * * * * * * * * * * * //

9
(
    ground
    {
        type            patch;
        nFaces          603;
        startFace       35937;
    }
    outlet
    {
        type            patch;
        nFaces          144;
        startFace       36540;
    }
    wall
    {
        type            patch;
        nFaces          450;
        startFace       36684;
    }
    wall2
    {
        type            patch;
        nFaces          320;
        startFace       37134;
    }
    wall3
    {
        type            patch;
        nFaces          530;
        startFace       37454;
    }
    internalPatch
    {
        type            internal;
        inGroups        List<word> 1(internal);
        nFaces          0;
        startFace       37984;
    }
    procBoundary1to0
    {
        type            processor;
        inGroups        List<word> 1(processor);
        nFaces          456;
        startFace       37984;
        matchTolerance  0.0001;
        myProcNo        1;
        neighbProcNo    0;
    }
    procBoundary1to2
    {
        type            processor;
        inGroups        List<word> 1(processor);
        nFaces          827;
        startFace       38440;
        matchTolerance  0.0001;
        myProcNo        1;
        neighbProcNo    2;
    }
    procBoundary1to4
    {
        type            processor;
        inGroups        List<word> 1(processor);
        nFaces          591;
        startFace       39267;
        matchTolerance  0.0001;
        myProcNo        1;
        neighbProcNo    4;
    }
)

// ************************************************************************* //
