/*--------------------------------*- C++ -*----------------------------------*\
  =========                 |
  \\      /  F ield         | OpenFOAM: The Open Source CFD Toolbox
   \\    /   O peration     | Website:  https://openfoam.org
    \\  /    A nd           | Version:  9
     \\/     M anipulation  |
\*---------------------------------------------------------------------------*/
FoamFile
{
    format      ascii;
    class       polyBoundaryMesh;
    location    "0.0005/polyMesh";
    object      boundary;
}
// * * * * * * * * * * * * * * * * * * * * * * * * * * * * * * * * * * * * * //

6
(
    ground
    {
        type            patch;
        nFaces          2248;
        startFace       88989;
    }
    outlet
    {
        type            patch;
        nFaces          1850;
        startFace       91237;
    }
    wall
    {
        type            patch;
        nFaces          1038;
        startFace       93087;
    }
    wall2
    {
        type            patch;
        nFaces          624;
        startFace       94125;
    }
    wall3
    {
        type            patch;
        nFaces          564;
        startFace       94749;
    }
    internalPatch
    {
        type            internal;
        inGroups        List<word> 1(internal);
        nFaces          0;
        startFace       95313;
    }
)

// ************************************************************************* //
