/*--------------------------------*- C++ -*----------------------------------*\
  =========                 |
  \\      /  F ield         | OpenFOAM: The Open Source CFD Toolbox
   \\    /   O peration     | Website:  https://openfoam.org
    \\  /    A nd           | Version:  9
     \\/     M anipulation  |
\*---------------------------------------------------------------------------*/
FoamFile
{
    format      binary;
    class       polyBoundaryMesh;
    location    "0.0024/polyMesh";
    object      boundary;
}
// * * * * * * * * * * * * * * * * * * * * * * * * * * * * * * * * * * * * * //

7
(
    ground
    {
        type            patch;
        nFaces          1096;
        startFace       114065;
    }
    outlet
    {
        type            patch;
        nFaces          1109;
        startFace       115161;
    }
    walls
    {
        type            wall;
        inGroups        List<word> 1(wall);
        nFaces          0;
        startFace       116270;
    }
    internalPatch
    {
        type            internal;
        inGroups        List<word> 1(internal);
        nFaces          0;
        startFace       116270;
    }
    procBoundary2to0
    {
        type            processor;
        inGroups        List<word> 1(processor);
        nFaces          1200;
        startFace       116270;
        matchTolerance  0.0001;
        myProcNo        2;
        neighbProcNo    0;
    }
    procBoundary2to1
    {
        type            processor;
        inGroups        List<word> 1(processor);
        nFaces          288;
        startFace       117470;
        matchTolerance  0.0001;
        myProcNo        2;
        neighbProcNo    1;
    }
    procBoundary2to3
    {
        type            processor;
        inGroups        List<word> 1(processor);
        nFaces          2075;
        startFace       117758;
        matchTolerance  0.0001;
        myProcNo        2;
        neighbProcNo    3;
    }
)

// ************************************************************************* //
