/*--------------------------------*- C++ -*----------------------------------*\
  =========                 |
  \\      /  F ield         | OpenFOAM: The Open Source CFD Toolbox
   \\    /   O peration     | Website:  https://openfoam.org
    \\  /    A nd           | Version:  9
     \\/     M anipulation  |
\*---------------------------------------------------------------------------*/
FoamFile
{
    format      ascii;
    class       polyBoundaryMesh;
    location    "5e-05/polyMesh";
    object      boundary;
}
// * * * * * * * * * * * * * * * * * * * * * * * * * * * * * * * * * * * * * //

10
(
    ground
    {
        type            patch;
        nFaces          220;
        startFace       10086;
    }
    outlet
    {
        type            patch;
        nFaces          33;
        startFace       10306;
    }
    wall
    {
        type            patch;
        nFaces          861;
        startFace       10339;
    }
    wall2
    {
        type            patch;
        nFaces          0;
        startFace       11200;
    }
    wall3
    {
        type            patch;
        nFaces          0;
        startFace       11200;
    }
    internalPatch
    {
        type            internal;
        inGroups        List<word> 1(internal);
        nFaces          0;
        startFace       11200;
    }
    procBoundary1to0
    {
        type            processor;
        inGroups        List<word> 1(processor);
        nFaces          104;
        startFace       11200;
        matchTolerance  0.0001;
        myProcNo        1;
        neighbProcNo    0;
    }
    procBoundary1to2
    {
        type            processor;
        inGroups        List<word> 1(processor);
        nFaces          286;
        startFace       11304;
        matchTolerance  0.0001;
        myProcNo        1;
        neighbProcNo    2;
    }
    procBoundary1to3
    {
        type            processor;
        inGroups        List<word> 1(processor);
        nFaces          198;
        startFace       11590;
        matchTolerance  0.0001;
        myProcNo        1;
        neighbProcNo    3;
    }
    procBoundary1to5
    {
        type            processor;
        inGroups        List<word> 1(processor);
        nFaces          143;
        startFace       11788;
        matchTolerance  0.0001;
        myProcNo        1;
        neighbProcNo    5;
    }
)

// ************************************************************************* //
