/*--------------------------------*- C++ -*----------------------------------*\
  =========                 |
  \\      /  F ield         | OpenFOAM: The Open Source CFD Toolbox
   \\    /   O peration     | Website:  https://openfoam.org
    \\  /    A nd           | Version:  9
     \\/     M anipulation  |
\*---------------------------------------------------------------------------*/
FoamFile
{
    format      ascii;
    class       polyBoundaryMesh;
    location    "0.0004/polyMesh";
    object      boundary;
}
// * * * * * * * * * * * * * * * * * * * * * * * * * * * * * * * * * * * * * //

11
(
    ground
    {
        type            patch;
        nFaces          188;
        startFace       7685;
    }
    outlet
    {
        type            patch;
        nFaces          146;
        startFace       7873;
    }
    wall
    {
        type            patch;
        nFaces          0;
        startFace       8019;
    }
    wall2
    {
        type            patch;
        nFaces          504;
        startFace       8019;
    }
    wall3
    {
        type            patch;
        nFaces          0;
        startFace       8523;
    }
    internalPatch
    {
        type            internal;
        inGroups        List<word> 1(internal);
        nFaces          0;
        startFace       8523;
    }
    procBoundary0to1
    {
        type            processor;
        inGroups        List<word> 1(processor);
        nFaces          162;
        startFace       8523;
        matchTolerance  0.0001;
        myProcNo        0;
        neighbProcNo    1;
    }
    procBoundary0to2
    {
        type            processor;
        inGroups        List<word> 1(processor);
        nFaces          180;
        startFace       8685;
        matchTolerance  0.0001;
        myProcNo        0;
        neighbProcNo    2;
    }
    procBoundary0to3
    {
        type            processor;
        inGroups        List<word> 1(processor);
        nFaces          88;
        startFace       8865;
        matchTolerance  0.0001;
        myProcNo        0;
        neighbProcNo    3;
    }
    procBoundary0to4
    {
        type            processor;
        inGroups        List<word> 1(processor);
        nFaces          64;
        startFace       8953;
        matchTolerance  0.0001;
        myProcNo        0;
        neighbProcNo    4;
    }
    procBoundary0to5
    {
        type            processor;
        inGroups        List<word> 1(processor);
        nFaces          20;
        startFace       9017;
        matchTolerance  0.0001;
        myProcNo        0;
        neighbProcNo    5;
    }
)

// ************************************************************************* //
