/*--------------------------------*- C++ -*----------------------------------*\
  =========                 |
  \\      /  F ield         | OpenFOAM: The Open Source CFD Toolbox
   \\    /   O peration     | Website:  https://openfoam.org
    \\  /    A nd           | Version:  9
     \\/     M anipulation  |
\*---------------------------------------------------------------------------*/
FoamFile
{
    format      ascii;
    class       polyBoundaryMesh;
    location    "constant/polyMesh";
    object      boundary;
}
// * * * * * * * * * * * * * * * * * * * * * * * * * * * * * * * * * * * * * //

10
(
    ground
    {
        type            patch;
        nFaces          165;
        startFace       8816;
    }
    outlet
    {
        type            patch;
        nFaces          298;
        startFace       8981;
    }
    wall
    {
        type            patch;
        nFaces          676;
        startFace       9279;
    }
    wall2
    {
        type            patch;
        nFaces          0;
        startFace       9955;
    }
    wall3
    {
        type            patch;
        nFaces          0;
        startFace       9955;
    }
    internalPatch
    {
        type            internal;
        inGroups        List<word> 1(internal);
        nFaces          0;
        startFace       9955;
    }
    procBoundary2to0
    {
        type            processor;
        inGroups        List<word> 1(processor);
        nFaces          55;
        startFace       9955;
        matchTolerance  0.0001;
        myProcNo        2;
        neighbProcNo    0;
    }
    procBoundary2to1
    {
        type            processor;
        inGroups        List<word> 1(processor);
        nFaces          249;
        startFace       10010;
        matchTolerance  0.0001;
        myProcNo        2;
        neighbProcNo    1;
    }
    procBoundary2to3
    {
        type            processor;
        inGroups        List<word> 1(processor);
        nFaces          136;
        startFace       10259;
        matchTolerance  0.0001;
        myProcNo        2;
        neighbProcNo    3;
    }
    procBoundary2to4
    {
        type            processor;
        inGroups        List<word> 1(processor);
        nFaces          52;
        startFace       10395;
        matchTolerance  0.0001;
        myProcNo        2;
        neighbProcNo    4;
    }
)

// ************************************************************************* //
