/*--------------------------------*- C++ -*----------------------------------*\
  =========                 |
  \\      /  F ield         | OpenFOAM: The Open Source CFD Toolbox
   \\    /   O peration     | Website:  https://openfoam.org
    \\  /    A nd           | Version:  9
     \\/     M anipulation  |
\*---------------------------------------------------------------------------*/
FoamFile
{
    format      ascii;
    class       polyBoundaryMesh;
    location    "0.001/polyMesh";
    object      boundary;
}
// * * * * * * * * * * * * * * * * * * * * * * * * * * * * * * * * * * * * * //

6
(
    ground
    {
        type            patch;
        nFaces          3160;
        startFace       153648;
    }
    outlet
    {
        type            patch;
        nFaces          2336;
        startFace       156808;
    }
    wall
    {
        type            patch;
        nFaces          1038;
        startFace       159144;
    }
    wall2
    {
        type            patch;
        nFaces          624;
        startFace       160182;
    }
    wall3
    {
        type            patch;
        nFaces          564;
        startFace       160806;
    }
    internalPatch
    {
        type            internal;
        inGroups        List<word> 1(internal);
        nFaces          0;
        startFace       161370;
    }
)

// ************************************************************************* //
