/*--------------------------------*- C++ -*----------------------------------*\
  =========                 |
  \\      /  F ield         | OpenFOAM: The Open Source CFD Toolbox
   \\    /   O peration     | Website:  https://openfoam.org
    \\  /    A nd           | Version:  9
     \\/     M anipulation  |
\*---------------------------------------------------------------------------*/
FoamFile
{
    format      binary;
    class       polyBoundaryMesh;
    location    "0.0006/polyMesh";
    object      boundary;
}
// * * * * * * * * * * * * * * * * * * * * * * * * * * * * * * * * * * * * * //

7
(
    ground
    {
        type            patch;
        nFaces          424;
        startFace       23769;
    }
    outlet
    {
        type            patch;
        nFaces          1200;
        startFace       24193;
    }
    walls
    {
        type            wall;
        inGroups        List<word> 1(wall);
        nFaces          336;
        startFace       25393;
    }
    internalPatch
    {
        type            internal;
        inGroups        List<word> 1(internal);
        nFaces          0;
        startFace       25729;
    }
    procBoundary0to1
    {
        type            processor;
        inGroups        List<word> 1(processor);
        nFaces          1053;
        startFace       25729;
        matchTolerance  0.0001;
        myProcNo        0;
        neighbProcNo    1;
    }
    procBoundary0to2
    {
        type            processor;
        inGroups        List<word> 1(processor);
        nFaces          1039;
        startFace       26782;
        matchTolerance  0.0001;
        myProcNo        0;
        neighbProcNo    2;
    }
    procBoundary0to3
    {
        type            processor;
        inGroups        List<word> 1(processor);
        nFaces          1114;
        startFace       27821;
        matchTolerance  0.0001;
        myProcNo        0;
        neighbProcNo    3;
    }
)

// ************************************************************************* //
