/*--------------------------------*- C++ -*----------------------------------*\
  =========                 |
  \\      /  F ield         | OpenFOAM: The Open Source CFD Toolbox
   \\    /   O peration     | Website:  https://openfoam.org
    \\  /    A nd           | Version:  9
     \\/     M anipulation  |
\*---------------------------------------------------------------------------*/
FoamFile
{
    format      ascii;
    class       polyBoundaryMesh;
    location    "0.00055/polyMesh";
    object      boundary;
}
// * * * * * * * * * * * * * * * * * * * * * * * * * * * * * * * * * * * * * //

9
(
    ground
    {
        type            patch;
        nFaces          409;
        startFace       17587;
    }
    outlet
    {
        type            patch;
        nFaces          309;
        startFace       17996;
    }
    wall
    {
        type            patch;
        nFaces          1258;
        startFace       18305;
    }
    wall2
    {
        type            patch;
        nFaces          0;
        startFace       19563;
    }
    wall3
    {
        type            patch;
        nFaces          0;
        startFace       19563;
    }
    internalPatch
    {
        type            internal;
        inGroups        List<word> 1(internal);
        nFaces          0;
        startFace       19563;
    }
    procBoundary2to1
    {
        type            processor;
        inGroups        List<word> 1(processor);
        nFaces          413;
        startFace       19563;
        matchTolerance  0.0001;
        myProcNo        2;
        neighbProcNo    1;
    }
    procBoundary2to3
    {
        type            processor;
        inGroups        List<word> 1(processor);
        nFaces          213;
        startFace       19976;
        matchTolerance  0.0001;
        myProcNo        2;
        neighbProcNo    3;
    }
    procBoundary2to4
    {
        type            processor;
        inGroups        List<word> 1(processor);
        nFaces          48;
        startFace       20189;
        matchTolerance  0.0001;
        myProcNo        2;
        neighbProcNo    4;
    }
)

// ************************************************************************* //
