/*--------------------------------*- C++ -*----------------------------------*\
  =========                 |
  \\      /  F ield         | OpenFOAM: The Open Source CFD Toolbox
   \\    /   O peration     | Website:  https://openfoam.org
    \\  /    A nd           | Version:  9
     \\/     M anipulation  |
\*---------------------------------------------------------------------------*/
FoamFile
{
    format      ascii;
    class       polyBoundaryMesh;
    location    "0.00075/polyMesh";
    object      boundary;
}
// * * * * * * * * * * * * * * * * * * * * * * * * * * * * * * * * * * * * * //

6
(
    ground
    {
        type            patch;
        nFaces          2728;
        startFace       119805;
    }
    outlet
    {
        type            patch;
        nFaces          2084;
        startFace       122533;
    }
    wall
    {
        type            patch;
        nFaces          1038;
        startFace       124617;
    }
    wall2
    {
        type            patch;
        nFaces          624;
        startFace       125655;
    }
    wall3
    {
        type            patch;
        nFaces          564;
        startFace       126279;
    }
    internalPatch
    {
        type            internal;
        inGroups        List<word> 1(internal);
        nFaces          0;
        startFace       126843;
    }
)

// ************************************************************************* //
