/*--------------------------------*- C++ -*----------------------------------*\
  =========                 |
  \\      /  F ield         | OpenFOAM: The Open Source CFD Toolbox
   \\    /   O peration     | Website:  https://openfoam.org
    \\  /    A nd           | Version:  9
     \\/     M anipulation  |
\*---------------------------------------------------------------------------*/
FoamFile
{
    format      ascii;
    class       polyBoundaryMesh;
    location    "constant/polyMesh";
    object      boundary;
}
// * * * * * * * * * * * * * * * * * * * * * * * * * * * * * * * * * * * * * //

12
(
    ground
    {
        type            patch;
        nFaces          164;
        startFace       4813;
    }
    outlet
    {
        type            patch;
        nFaces          451;
        startFace       4977;
    }
    wall
    {
        type            patch;
        nFaces          0;
        startFace       5428;
    }
    wall2
    {
        type            patch;
        nFaces          0;
        startFace       5428;
    }
    wall3
    {
        type            patch;
        nFaces          0;
        startFace       5428;
    }
    internalPatch
    {
        type            internal;
        inGroups        List<word> 1(internal);
        nFaces          0;
        startFace       5428;
    }
    procBoundary0to1
    {
        type            processor;
        inGroups        List<word> 1(processor);
        nFaces          179;
        startFace       5428;
        matchTolerance  0.0001;
        myProcNo        0;
        neighbProcNo    1;
    }
    procBoundary0to2
    {
        type            processor;
        inGroups        List<word> 1(processor);
        nFaces          21;
        startFace       5607;
        matchTolerance  0.0001;
        myProcNo        0;
        neighbProcNo    2;
    }
    procBoundary0to4
    {
        type            processor;
        inGroups        List<word> 1(processor);
        nFaces          9;
        startFace       5628;
        matchTolerance  0.0001;
        myProcNo        0;
        neighbProcNo    4;
    }
    procBoundary0to5
    {
        type            processor;
        inGroups        List<word> 1(processor);
        nFaces          24;
        startFace       5637;
        matchTolerance  0.0001;
        myProcNo        0;
        neighbProcNo    5;
    }
    procBoundary0to6
    {
        type            processor;
        inGroups        List<word> 1(processor);
        nFaces          81;
        startFace       5661;
        matchTolerance  0.0001;
        myProcNo        0;
        neighbProcNo    6;
    }
    procBoundary0to7
    {
        type            processor;
        inGroups        List<word> 1(processor);
        nFaces          29;
        startFace       5742;
        matchTolerance  0.0001;
        myProcNo        0;
        neighbProcNo    7;
    }
)

// ************************************************************************* //
