/*--------------------------------*- C++ -*----------------------------------*\
  =========                 |
  \\      /  F ield         | OpenFOAM: The Open Source CFD Toolbox
   \\    /   O peration     | Website:  https://openfoam.org
    \\  /    A nd           | Version:  9
     \\/     M anipulation  |
\*---------------------------------------------------------------------------*/
FoamFile
{
    format      ascii;
    class       polyBoundaryMesh;
    location    "0.0015/polyMesh";
    object      boundary;
}
// * * * * * * * * * * * * * * * * * * * * * * * * * * * * * * * * * * * * * //

9
(
    ground
    {
        type            patch;
        nFaces          623;
        startFace       35581;
    }
    outlet
    {
        type            patch;
        nFaces          289;
        startFace       36204;
    }
    wall
    {
        type            patch;
        nFaces          0;
        startFace       36493;
    }
    wall2
    {
        type            patch;
        nFaces          950;
        startFace       36493;
    }
    wall3
    {
        type            patch;
        nFaces          0;
        startFace       37443;
    }
    internalPatch
    {
        type            internal;
        inGroups        List<word> 1(internal);
        nFaces          0;
        startFace       37443;
    }
    procBoundary2to1
    {
        type            processor;
        inGroups        List<word> 1(processor);
        nFaces          827;
        startFace       37443;
        matchTolerance  0.0001;
        myProcNo        2;
        neighbProcNo    1;
    }
    procBoundary2to3
    {
        type            processor;
        inGroups        List<word> 1(processor);
        nFaces          664;
        startFace       38270;
        matchTolerance  0.0001;
        myProcNo        2;
        neighbProcNo    3;
    }
    procBoundary2to4
    {
        type            processor;
        inGroups        List<word> 1(processor);
        nFaces          398;
        startFace       38934;
        matchTolerance  0.0001;
        myProcNo        2;
        neighbProcNo    4;
    }
)

// ************************************************************************* //
