/*--------------------------------*- C++ -*----------------------------------*\
  =========                 |
  \\      /  F ield         | OpenFOAM: The Open Source CFD Toolbox
   \\    /   O peration     | Website:  https://openfoam.org
    \\  /    A nd           | Version:  9
     \\/     M anipulation  |
\*---------------------------------------------------------------------------*/
FoamFile
{
    format      ascii;
    class       polyBoundaryMesh;
    location    "0.0002/polyMesh";
    object      boundary;
}
// * * * * * * * * * * * * * * * * * * * * * * * * * * * * * * * * * * * * * //

6
(
    ground
    {
        type            patch;
        nFaces          1687;
        startFace       61005;
    }
    outlet
    {
        type            patch;
        nFaces          1673;
        startFace       62692;
    }
    wall
    {
        type            patch;
        nFaces          1038;
        startFace       64365;
    }
    wall2
    {
        type            patch;
        nFaces          624;
        startFace       65403;
    }
    wall3
    {
        type            patch;
        nFaces          564;
        startFace       66027;
    }
    internalPatch
    {
        type            internal;
        inGroups        List<word> 1(internal);
        nFaces          0;
        startFace       66591;
    }
)

// ************************************************************************* //
