/*--------------------------------*- C++ -*----------------------------------*\
  =========                 |
  \\      /  F ield         | OpenFOAM: The Open Source CFD Toolbox
   \\    /   O peration     | Website:  https://openfoam.org
    \\  /    A nd           | Version:  9
     \\/     M anipulation  |
\*---------------------------------------------------------------------------*/
FoamFile
{
    format      ascii;
    class       polyBoundaryMesh;
    location    "0/polyMesh";
    object      boundary;
}
// * * * * * * * * * * * * * * * * * * * * * * * * * * * * * * * * * * * * * //

10
(
    ground
    {
        type            patch;
        nFaces          196;
        startFace       5206;
    }
    outlet
    {
        type            patch;
        nFaces          298;
        startFace       5402;
    }
    wall
    {
        type            patch;
        nFaces          255;
        startFace       5700;
    }
    wall2
    {
        type            patch;
        nFaces          0;
        startFace       5955;
    }
    wall3
    {
        type            patch;
        nFaces          0;
        startFace       5955;
    }
    internalPatch
    {
        type            internal;
        inGroups        List<word> 1(internal);
        nFaces          0;
        startFace       5955;
    }
    procBoundary4to3
    {
        type            processor;
        inGroups        List<word> 1(processor);
        nFaces          100;
        startFace       5955;
        matchTolerance  0.0001;
        myProcNo        4;
        neighbProcNo    3;
    }
    procBoundary4to5
    {
        type            processor;
        inGroups        List<word> 1(processor);
        nFaces          188;
        startFace       6055;
        matchTolerance  0.0001;
        myProcNo        4;
        neighbProcNo    5;
    }
    procBoundary4to6
    {
        type            processor;
        inGroups        List<word> 1(processor);
        nFaces          3;
        startFace       6243;
        matchTolerance  0.0001;
        myProcNo        4;
        neighbProcNo    6;
    }
    procBoundary4to7
    {
        type            processor;
        inGroups        List<word> 1(processor);
        nFaces          44;
        startFace       6246;
        matchTolerance  0.0001;
        myProcNo        4;
        neighbProcNo    7;
    }
)

// ************************************************************************* //
