/*--------------------------------*- C++ -*----------------------------------*\
  =========                 |
  \\      /  F ield         | OpenFOAM: The Open Source CFD Toolbox
   \\    /   O peration     | Website:  https://openfoam.org
    \\  /    A nd           | Version:  9
     \\/     M anipulation  |
\*---------------------------------------------------------------------------*/
FoamFile
{
    format      ascii;
    class       polyBoundaryMesh;
    location    "0.00305/polyMesh";
    object      boundary;
}
// * * * * * * * * * * * * * * * * * * * * * * * * * * * * * * * * * * * * * //

10
(
    ground
    {
        type            patch;
        nFaces          800;
        startFace       74566;
    }
    outlet
    {
        type            patch;
        nFaces          379;
        startFace       75366;
    }
    wall
    {
        type            patch;
        nFaces          0;
        startFace       75745;
    }
    wall2
    {
        type            patch;
        nFaces          0;
        startFace       75745;
    }
    wall3
    {
        type            patch;
        nFaces          0;
        startFace       75745;
    }
    internalPatch
    {
        type            internal;
        inGroups        List<word> 1(internal);
        nFaces          0;
        startFace       75745;
    }
    procBoundary5to0
    {
        type            processor;
        inGroups        List<word> 1(processor);
        nFaces          1180;
        startFace       75745;
        matchTolerance  0.0001;
        myProcNo        5;
        neighbProcNo    0;
    }
    procBoundary5to2
    {
        type            processor;
        inGroups        List<word> 1(processor);
        nFaces          682;
        startFace       76925;
        matchTolerance  0.0001;
        myProcNo        5;
        neighbProcNo    2;
    }
    procBoundary5to3
    {
        type            processor;
        inGroups        List<word> 1(processor);
        nFaces          744;
        startFace       77607;
        matchTolerance  0.0001;
        myProcNo        5;
        neighbProcNo    3;
    }
    procBoundary5to4
    {
        type            processor;
        inGroups        List<word> 1(processor);
        nFaces          1910;
        startFace       78351;
        matchTolerance  0.0001;
        myProcNo        5;
        neighbProcNo    4;
    }
)

// ************************************************************************* //
