/*--------------------------------*- C++ -*----------------------------------*\
  =========                 |
  \\      /  F ield         | OpenFOAM: The Open Source CFD Toolbox
   \\    /   O peration     | Website:  https://openfoam.org
    \\  /    A nd           | Version:  9
     \\/     M anipulation  |
\*---------------------------------------------------------------------------*/
FoamFile
{
    format      ascii;
    class       polyBoundaryMesh;
    location    "0.00325/polyMesh";
    object      boundary;
}
// * * * * * * * * * * * * * * * * * * * * * * * * * * * * * * * * * * * * * //

8
(
    ground
    {
        type            patch;
        nFaces          1035;
        startFace       81787;
    }
    outlet
    {
        type            patch;
        nFaces          197;
        startFace       82822;
    }
    wall
    {
        type            patch;
        nFaces          514;
        startFace       83019;
    }
    wall2
    {
        type            patch;
        nFaces          324;
        startFace       83533;
    }
    wall3
    {
        type            patch;
        nFaces          530;
        startFace       83857;
    }
    internalPatch
    {
        type            internal;
        inGroups        List<word> 1(internal);
        nFaces          0;
        startFace       84387;
    }
    procBoundary1to0
    {
        type            processor;
        inGroups        List<word> 1(processor);
        nFaces          1083;
        startFace       84387;
        matchTolerance  0.0001;
        myProcNo        1;
        neighbProcNo    0;
    }
    procBoundary1to2
    {
        type            processor;
        inGroups        List<word> 1(processor);
        nFaces          2333;
        startFace       85470;
        matchTolerance  0.0001;
        myProcNo        1;
        neighbProcNo    2;
    }
)

// ************************************************************************* //
