/*--------------------------------*- C++ -*----------------------------------*\
  =========                 |
  \\      /  F ield         | OpenFOAM: The Open Source CFD Toolbox
   \\    /   O peration     | Website:  https://openfoam.org
    \\  /    A nd           | Version:  9
     \\/     M anipulation  |
\*---------------------------------------------------------------------------*/
FoamFile
{
    format      ascii;
    class       polyBoundaryMesh;
    location    "0.0001/polyMesh";
    object      boundary;
}
// * * * * * * * * * * * * * * * * * * * * * * * * * * * * * * * * * * * * * //

6
(
    ground
    {
        type            patch;
        nFaces          1498;
        startFace       54210;
    }
    outlet
    {
        type            patch;
        nFaces          1661;
        startFace       55708;
    }
    wall
    {
        type            patch;
        nFaces          1038;
        startFace       57369;
    }
    wall2
    {
        type            patch;
        nFaces          624;
        startFace       58407;
    }
    wall3
    {
        type            patch;
        nFaces          564;
        startFace       59031;
    }
    internalPatch
    {
        type            internal;
        inGroups        List<word> 1(internal);
        nFaces          0;
        startFace       59595;
    }
)

// ************************************************************************* //
