/*--------------------------------*- C++ -*----------------------------------*\
  =========                 |
  \\      /  F ield         | OpenFOAM: The Open Source CFD Toolbox
   \\    /   O peration     | Website:  https://openfoam.org
    \\  /    A nd           | Version:  9
     \\/     M anipulation  |
\*---------------------------------------------------------------------------*/
FoamFile
{
    format      ascii;
    class       polyBoundaryMesh;
    location    "0.0001/polyMesh";
    object      boundary;
}
// * * * * * * * * * * * * * * * * * * * * * * * * * * * * * * * * * * * * * //

10
(
    ground
    {
        type            patch;
        nFaces          208;
        startFace       5571;
    }
    outlet
    {
        type            patch;
        nFaces          335;
        startFace       5779;
    }
    wall
    {
        type            patch;
        nFaces          223;
        startFace       6114;
    }
    wall2
    {
        type            patch;
        nFaces          0;
        startFace       6337;
    }
    wall3
    {
        type            patch;
        nFaces          0;
        startFace       6337;
    }
    internalPatch
    {
        type            internal;
        inGroups        List<word> 1(internal);
        nFaces          0;
        startFace       6337;
    }
    procBoundary4to2
    {
        type            processor;
        inGroups        List<word> 1(processor);
        nFaces          113;
        startFace       6337;
        matchTolerance  0.0001;
        myProcNo        4;
        neighbProcNo    2;
    }
    procBoundary4to5
    {
        type            processor;
        inGroups        List<word> 1(processor);
        nFaces          188;
        startFace       6450;
        matchTolerance  0.0001;
        myProcNo        4;
        neighbProcNo    5;
    }
    procBoundary4to6
    {
        type            processor;
        inGroups        List<word> 1(processor);
        nFaces          43;
        startFace       6638;
        matchTolerance  0.0001;
        myProcNo        4;
        neighbProcNo    6;
    }
    procBoundary4to7
    {
        type            processor;
        inGroups        List<word> 1(processor);
        nFaces          18;
        startFace       6681;
        matchTolerance  0.0001;
        myProcNo        4;
        neighbProcNo    7;
    }
)

// ************************************************************************* //
