/*--------------------------------*- C++ -*----------------------------------*\
  =========                 |
  \\      /  F ield         | OpenFOAM: The Open Source CFD Toolbox
   \\    /   O peration     | Website:  https://openfoam.org
    \\  /    A nd           | Version:  9
     \\/     M anipulation  |
\*---------------------------------------------------------------------------*/
FoamFile
{
    format      ascii;
    class       polyBoundaryMesh;
    location    "0.00105/polyMesh";
    object      boundary;
}
// * * * * * * * * * * * * * * * * * * * * * * * * * * * * * * * * * * * * * //

9
(
    ground
    {
        type            patch;
        nFaces          551;
        startFace       26709;
    }
    outlet
    {
        type            patch;
        nFaces          442;
        startFace       27260;
    }
    wall
    {
        type            patch;
        nFaces          262;
        startFace       27702;
    }
    wall2
    {
        type            patch;
        nFaces          888;
        startFace       27964;
    }
    wall3
    {
        type            patch;
        nFaces          530;
        startFace       28852;
    }
    internalPatch
    {
        type            internal;
        inGroups        List<word> 1(internal);
        nFaces          0;
        startFace       29382;
    }
    procBoundary1to0
    {
        type            processor;
        inGroups        List<word> 1(processor);
        nFaces          281;
        startFace       29382;
        matchTolerance  0.0001;
        myProcNo        1;
        neighbProcNo    0;
    }
    procBoundary1to2
    {
        type            processor;
        inGroups        List<word> 1(processor);
        nFaces          1052;
        startFace       29663;
        matchTolerance  0.0001;
        myProcNo        1;
        neighbProcNo    2;
    }
    procBoundary1to3
    {
        type            processor;
        inGroups        List<word> 1(processor);
        nFaces          230;
        startFace       30715;
        matchTolerance  0.0001;
        myProcNo        1;
        neighbProcNo    3;
    }
)

// ************************************************************************* //
