/*--------------------------------*- C++ -*----------------------------------*\
  =========                 |
  \\      /  F ield         | OpenFOAM: The Open Source CFD Toolbox
   \\    /   O peration     | Website:  https://openfoam.org
    \\  /    A nd           | Version:  9
     \\/     M anipulation  |
\*---------------------------------------------------------------------------*/
FoamFile
{
    format      binary;
    class       polyBoundaryMesh;
    location    "0.00025/polyMesh";
    object      boundary;
}
// * * * * * * * * * * * * * * * * * * * * * * * * * * * * * * * * * * * * * //

7
(
    ground
    {
        type            patch;
        nFaces          255;
        startFace       12639;
    }
    outlet
    {
        type            patch;
        nFaces          600;
        startFace       12894;
    }
    walls
    {
        type            wall;
        inGroups        List<word> 1(wall);
        nFaces          266;
        startFace       13494;
    }
    internalPatch
    {
        type            internal;
        inGroups        List<word> 1(internal);
        nFaces          0;
        startFace       13760;
    }
    procBoundary0to1
    {
        type            processor;
        inGroups        List<word> 1(processor);
        nFaces          458;
        startFace       13760;
        matchTolerance  0.0001;
        myProcNo        0;
        neighbProcNo    1;
    }
    procBoundary0to2
    {
        type            processor;
        inGroups        List<word> 1(processor);
        nFaces          241;
        startFace       14218;
        matchTolerance  0.0001;
        myProcNo        0;
        neighbProcNo    2;
    }
    procBoundary0to3
    {
        type            processor;
        inGroups        List<word> 1(processor);
        nFaces          385;
        startFace       14459;
        matchTolerance  0.0001;
        myProcNo        0;
        neighbProcNo    3;
    }
)

// ************************************************************************* //
