/*--------------------------------*- C++ -*----------------------------------*\
  =========                 |
  \\      /  F ield         | OpenFOAM: The Open Source CFD Toolbox
   \\    /   O peration     | Website:  https://openfoam.org
    \\  /    A nd           | Version:  9
     \\/     M anipulation  |
\*---------------------------------------------------------------------------*/
FoamFile
{
    format      ascii;
    class       polyBoundaryMesh;
    location    "0/polyMesh";
    object      boundary;
}
// * * * * * * * * * * * * * * * * * * * * * * * * * * * * * * * * * * * * * //

11
(
    ground
    {
        type            patch;
        nFaces          186;
        startFace       5018;
    }
    outlet
    {
        type            patch;
        nFaces          446;
        startFace       5204;
    }
    wall
    {
        type            patch;
        nFaces          0;
        startFace       5650;
    }
    wall2
    {
        type            patch;
        nFaces          0;
        startFace       5650;
    }
    wall3
    {
        type            patch;
        nFaces          0;
        startFace       5650;
    }
    internalPatch
    {
        type            internal;
        inGroups        List<word> 1(internal);
        nFaces          0;
        startFace       5650;
    }
    procBoundary3to2
    {
        type            processor;
        inGroups        List<word> 1(processor);
        nFaces          164;
        startFace       5650;
        matchTolerance  0.0001;
        myProcNo        3;
        neighbProcNo    2;
    }
    procBoundary3to4
    {
        type            processor;
        inGroups        List<word> 1(processor);
        nFaces          100;
        startFace       5814;
        matchTolerance  0.0001;
        myProcNo        3;
        neighbProcNo    4;
    }
    procBoundary3to5
    {
        type            processor;
        inGroups        List<word> 1(processor);
        nFaces          26;
        startFace       5914;
        matchTolerance  0.0001;
        myProcNo        3;
        neighbProcNo    5;
    }
    procBoundary3to6
    {
        type            processor;
        inGroups        List<word> 1(processor);
        nFaces          18;
        startFace       5940;
        matchTolerance  0.0001;
        myProcNo        3;
        neighbProcNo    6;
    }
    procBoundary3to7
    {
        type            processor;
        inGroups        List<word> 1(processor);
        nFaces          4;
        startFace       5958;
        matchTolerance  0.0001;
        myProcNo        3;
        neighbProcNo    7;
    }
)

// ************************************************************************* //
