/*--------------------------------*- C++ -*----------------------------------*\
  =========                 |
  \\      /  F ield         | OpenFOAM: The Open Source CFD Toolbox
   \\    /   O peration     | Website:  https://openfoam.org
    \\  /    A nd           | Version:  9
     \\/     M anipulation  |
\*---------------------------------------------------------------------------*/
FoamFile
{
    format      binary;
    class       polyBoundaryMesh;
    location    "0.00075/polyMesh";
    object      boundary;
}
// * * * * * * * * * * * * * * * * * * * * * * * * * * * * * * * * * * * * * //

7
(
    ground
    {
        type            patch;
        nFaces          317;
        startFace       29625;
    }
    outlet
    {
        type            patch;
        nFaces          381;
        startFace       29942;
    }
    walls
    {
        type            wall;
        inGroups        List<word> 1(wall);
        nFaces          143;
        startFace       30323;
    }
    internalPatch
    {
        type            internal;
        inGroups        List<word> 1(internal);
        nFaces          0;
        startFace       30466;
    }
    procBoundary1to0
    {
        type            processor;
        inGroups        List<word> 1(processor);
        nFaces          559;
        startFace       30466;
        matchTolerance  0.0001;
        myProcNo        1;
        neighbProcNo    0;
    }
    procBoundary1to2
    {
        type            processor;
        inGroups        List<word> 1(processor);
        nFaces          400;
        startFace       31025;
        matchTolerance  0.0001;
        myProcNo        1;
        neighbProcNo    2;
    }
    procBoundary1to3
    {
        type            processor;
        inGroups        List<word> 1(processor);
        nFaces          1056;
        startFace       31425;
        matchTolerance  0.0001;
        myProcNo        1;
        neighbProcNo    3;
    }
)

// ************************************************************************* //
