/*--------------------------------*- C++ -*----------------------------------*\
  =========                 |
  \\      /  F ield         | OpenFOAM: The Open Source CFD Toolbox
   \\    /   O peration     | Website:  https://openfoam.org
    \\  /    A nd           | Version:  9
     \\/     M anipulation  |
\*---------------------------------------------------------------------------*/
FoamFile
{
    format      ascii;
    class       polyBoundaryMesh;
    location    "0.0002/polyMesh";
    object      boundary;
}
// * * * * * * * * * * * * * * * * * * * * * * * * * * * * * * * * * * * * * //

11
(
    ground
    {
        type            patch;
        nFaces          239;
        startFace       6257;
    }
    outlet
    {
        type            patch;
        nFaces          518;
        startFace       6496;
    }
    wall
    {
        type            patch;
        nFaces          0;
        startFace       7014;
    }
    wall2
    {
        type            patch;
        nFaces          0;
        startFace       7014;
    }
    wall3
    {
        type            patch;
        nFaces          0;
        startFace       7014;
    }
    internalPatch
    {
        type            internal;
        inGroups        List<word> 1(internal);
        nFaces          0;
        startFace       7014;
    }
    procBoundary0to1
    {
        type            processor;
        inGroups        List<word> 1(processor);
        nFaces          232;
        startFace       7014;
        matchTolerance  0.0001;
        myProcNo        0;
        neighbProcNo    1;
    }
    procBoundary0to2
    {
        type            processor;
        inGroups        List<word> 1(processor);
        nFaces          97;
        startFace       7246;
        matchTolerance  0.0001;
        myProcNo        0;
        neighbProcNo    2;
    }
    procBoundary0to3
    {
        type            processor;
        inGroups        List<word> 1(processor);
        nFaces          93;
        startFace       7343;
        matchTolerance  0.0001;
        myProcNo        0;
        neighbProcNo    3;
    }
    procBoundary0to4
    {
        type            processor;
        inGroups        List<word> 1(processor);
        nFaces          160;
        startFace       7436;
        matchTolerance  0.0001;
        myProcNo        0;
        neighbProcNo    4;
    }
    procBoundary0to6
    {
        type            processor;
        inGroups        List<word> 1(processor);
        nFaces          70;
        startFace       7596;
        matchTolerance  0.0001;
        myProcNo        0;
        neighbProcNo    6;
    }
)

// ************************************************************************* //
