/*--------------------------------*- C++ -*----------------------------------*\
  =========                 |
  \\      /  F ield         | OpenFOAM: The Open Source CFD Toolbox
   \\    /   O peration     | Website:  https://openfoam.org
    \\  /    A nd           | Version:  9
     \\/     M anipulation  |
\*---------------------------------------------------------------------------*/
FoamFile
{
    format      ascii;
    class       polyBoundaryMesh;
    location    "0.0004/polyMesh";
    object      boundary;
}
// * * * * * * * * * * * * * * * * * * * * * * * * * * * * * * * * * * * * * //

8
(
    ground
    {
        type            patch;
        nFaces          294;
        startFace       7438;
    }
    outlet
    {
        type            patch;
        nFaces          173;
        startFace       7732;
    }
    wall
    {
        type            patch;
        nFaces          0;
        startFace       7905;
    }
    wall2
    {
        type            patch;
        nFaces          0;
        startFace       7905;
    }
    wall3
    {
        type            patch;
        nFaces          0;
        startFace       7905;
    }
    internalPatch
    {
        type            internal;
        inGroups        List<word> 1(internal);
        nFaces          0;
        startFace       7905;
    }
    procBoundary7to4
    {
        type            processor;
        inGroups        List<word> 1(processor);
        nFaces          485;
        startFace       7905;
        matchTolerance  0.0001;
        myProcNo        7;
        neighbProcNo    4;
    }
    procBoundary7to6
    {
        type            processor;
        inGroups        List<word> 1(processor);
        nFaces          348;
        startFace       8390;
        matchTolerance  0.0001;
        myProcNo        7;
        neighbProcNo    6;
    }
)

// ************************************************************************* //
