/*--------------------------------*- C++ -*----------------------------------*\
  =========                 |
  \\      /  F ield         | OpenFOAM: The Open Source CFD Toolbox
   \\    /   O peration     | Website:  https://openfoam.org
    \\  /    A nd           | Version:  9
     \\/     M anipulation  |
\*---------------------------------------------------------------------------*/
FoamFile
{
    format      ascii;
    class       polyBoundaryMesh;
    location    "0.0001/polyMesh";
    object      boundary;
}
// * * * * * * * * * * * * * * * * * * * * * * * * * * * * * * * * * * * * * //

11
(
    ground
    {
        type            patch;
        nFaces          230;
        startFace       6264;
    }
    outlet
    {
        type            patch;
        nFaces          560;
        startFace       6494;
    }
    wall
    {
        type            patch;
        nFaces          0;
        startFace       7054;
    }
    wall2
    {
        type            patch;
        nFaces          0;
        startFace       7054;
    }
    wall3
    {
        type            patch;
        nFaces          0;
        startFace       7054;
    }
    internalPatch
    {
        type            internal;
        inGroups        List<word> 1(internal);
        nFaces          0;
        startFace       7054;
    }
    procBoundary1to0
    {
        type            processor;
        inGroups        List<word> 1(processor);
        nFaces          134;
        startFace       7054;
        matchTolerance  0.0001;
        myProcNo        1;
        neighbProcNo    0;
    }
    procBoundary1to2
    {
        type            processor;
        inGroups        List<word> 1(processor);
        nFaces          80;
        startFace       7188;
        matchTolerance  0.0001;
        myProcNo        1;
        neighbProcNo    2;
    }
    procBoundary1to3
    {
        type            processor;
        inGroups        List<word> 1(processor);
        nFaces          321;
        startFace       7268;
        matchTolerance  0.0001;
        myProcNo        1;
        neighbProcNo    3;
    }
    procBoundary1to6
    {
        type            processor;
        inGroups        List<word> 1(processor);
        nFaces          77;
        startFace       7589;
        matchTolerance  0.0001;
        myProcNo        1;
        neighbProcNo    6;
    }
    procBoundary1to7
    {
        type            processor;
        inGroups        List<word> 1(processor);
        nFaces          35;
        startFace       7666;
        matchTolerance  0.0001;
        myProcNo        1;
        neighbProcNo    7;
    }
)

// ************************************************************************* //
