/*--------------------------------*- C++ -*----------------------------------*\
  =========                 |
  \\      /  F ield         | OpenFOAM: The Open Source CFD Toolbox
   \\    /   O peration     | Website:  https://openfoam.org
    \\  /    A nd           | Version:  9
     \\/     M anipulation  |
\*---------------------------------------------------------------------------*/
FoamFile
{
    format      ascii;
    class       polyBoundaryMesh;
    location    "0/polyMesh";
    object      boundary;
}
// * * * * * * * * * * * * * * * * * * * * * * * * * * * * * * * * * * * * * //

10
(
    ground
    {
        type            patch;
        nFaces          149;
        startFace       5337;
    }
    outlet
    {
        type            patch;
        nFaces          10;
        startFace       5486;
    }
    wall
    {
        type            patch;
        nFaces          71;
        startFace       5496;
    }
    wall2
    {
        type            patch;
        nFaces          348;
        startFace       5567;
    }
    wall3
    {
        type            patch;
        nFaces          0;
        startFace       5915;
    }
    internalPatch
    {
        type            internal;
        inGroups        List<word> 1(internal);
        nFaces          0;
        startFace       5915;
    }
    procBoundary5to3
    {
        type            processor;
        inGroups        List<word> 1(processor);
        nFaces          26;
        startFace       5915;
        matchTolerance  0.0001;
        myProcNo        5;
        neighbProcNo    3;
    }
    procBoundary5to4
    {
        type            processor;
        inGroups        List<word> 1(processor);
        nFaces          188;
        startFace       5941;
        matchTolerance  0.0001;
        myProcNo        5;
        neighbProcNo    4;
    }
    procBoundary5to6
    {
        type            processor;
        inGroups        List<word> 1(processor);
        nFaces          76;
        startFace       6129;
        matchTolerance  0.0001;
        myProcNo        5;
        neighbProcNo    6;
    }
    procBoundary5to7
    {
        type            processor;
        inGroups        List<word> 1(processor);
        nFaces          125;
        startFace       6205;
        matchTolerance  0.0001;
        myProcNo        5;
        neighbProcNo    7;
    }
)

// ************************************************************************* //
