/*--------------------------------*- C++ -*----------------------------------*\
  =========                 |
  \\      /  F ield         | OpenFOAM: The Open Source CFD Toolbox
   \\    /   O peration     | Website:  https://openfoam.org
    \\  /    A nd           | Version:  9
     \\/     M anipulation  |
\*---------------------------------------------------------------------------*/
FoamFile
{
    format      ascii;
    class       polyBoundaryMesh;
    location    "0.00165/polyMesh";
    object      boundary;
}
// * * * * * * * * * * * * * * * * * * * * * * * * * * * * * * * * * * * * * //

9
(
    ground
    {
        type            patch;
        nFaces          958;
        startFace       40153;
    }
    outlet
    {
        type            patch;
        nFaces          700;
        startFace       41111;
    }
    wall
    {
        type            patch;
        nFaces          1190;
        startFace       41811;
    }
    wall2
    {
        type            patch;
        nFaces          0;
        startFace       43001;
    }
    wall3
    {
        type            patch;
        nFaces          0;
        startFace       43001;
    }
    internalPatch
    {
        type            internal;
        inGroups        List<word> 1(internal);
        nFaces          0;
        startFace       43001;
    }
    procBoundary0to1
    {
        type            processor;
        inGroups        List<word> 1(processor);
        nFaces          495;
        startFace       43001;
        matchTolerance  0.0001;
        myProcNo        0;
        neighbProcNo    1;
    }
    procBoundary0to4
    {
        type            processor;
        inGroups        List<word> 1(processor);
        nFaces          380;
        startFace       43496;
        matchTolerance  0.0001;
        myProcNo        0;
        neighbProcNo    4;
    }
    procBoundary0to5
    {
        type            processor;
        inGroups        List<word> 1(processor);
        nFaces          349;
        startFace       43876;
        matchTolerance  0.0001;
        myProcNo        0;
        neighbProcNo    5;
    }
)

// ************************************************************************* //
