/*--------------------------------*- C++ -*----------------------------------*\
  =========                 |
  \\      /  F ield         | OpenFOAM: The Open Source CFD Toolbox
   \\    /   O peration     | Website:  https://openfoam.org
    \\  /    A nd           | Version:  9
     \\/     M anipulation  |
\*---------------------------------------------------------------------------*/
FoamFile
{
    format      ascii;
    class       polyBoundaryMesh;
    location    "constant/polyMesh";
    object      boundary;
}
// * * * * * * * * * * * * * * * * * * * * * * * * * * * * * * * * * * * * * //

11
(
    ground
    {
        type            patch;
        nFaces          189;
        startFace       9048;
    }
    outlet
    {
        type            patch;
        nFaces          0;
        startFace       9237;
    }
    wall
    {
        type            patch;
        nFaces          228;
        startFace       9237;
    }
    wall2
    {
        type            patch;
        nFaces          60;
        startFace       9465;
    }
    wall3
    {
        type            patch;
        nFaces          530;
        startFace       9525;
    }
    internalPatch
    {
        type            internal;
        inGroups        List<word> 1(internal);
        nFaces          0;
        startFace       10055;
    }
    procBoundary3to0
    {
        type            processor;
        inGroups        List<word> 1(processor);
        nFaces          4;
        startFace       10055;
        matchTolerance  0.0001;
        myProcNo        3;
        neighbProcNo    0;
    }
    procBoundary3to1
    {
        type            processor;
        inGroups        List<word> 1(processor);
        nFaces          78;
        startFace       10059;
        matchTolerance  0.0001;
        myProcNo        3;
        neighbProcNo    1;
    }
    procBoundary3to2
    {
        type            processor;
        inGroups        List<word> 1(processor);
        nFaces          136;
        startFace       10137;
        matchTolerance  0.0001;
        myProcNo        3;
        neighbProcNo    2;
    }
    procBoundary3to4
    {
        type            processor;
        inGroups        List<word> 1(processor);
        nFaces          230;
        startFace       10273;
        matchTolerance  0.0001;
        myProcNo        3;
        neighbProcNo    4;
    }
    procBoundary3to5
    {
        type            processor;
        inGroups        List<word> 1(processor);
        nFaces          105;
        startFace       10503;
        matchTolerance  0.0001;
        myProcNo        3;
        neighbProcNo    5;
    }
)

// ************************************************************************* //
