/*--------------------------------*- C++ -*----------------------------------*\
  =========                 |
  \\      /  F ield         | OpenFOAM: The Open Source CFD Toolbox
   \\    /   O peration     | Website:  https://openfoam.org
    \\  /    A nd           | Version:  9
     \\/     M anipulation  |
\*---------------------------------------------------------------------------*/
FoamFile
{
    format      ascii;
    class       polyBoundaryMesh;
    location    "0.0003/polyMesh";
    object      boundary;
}
// * * * * * * * * * * * * * * * * * * * * * * * * * * * * * * * * * * * * * //

8
(
    ground
    {
        type            patch;
        nFaces          288;
        startFace       6885;
    }
    outlet
    {
        type            patch;
        nFaces          167;
        startFace       7173;
    }
    wall
    {
        type            patch;
        nFaces          0;
        startFace       7340;
    }
    wall2
    {
        type            patch;
        nFaces          0;
        startFace       7340;
    }
    wall3
    {
        type            patch;
        nFaces          0;
        startFace       7340;
    }
    internalPatch
    {
        type            internal;
        inGroups        List<word> 1(internal);
        nFaces          0;
        startFace       7340;
    }
    procBoundary2to0
    {
        type            processor;
        inGroups        List<word> 1(processor);
        nFaces          384;
        startFace       7340;
        matchTolerance  0.0001;
        myProcNo        2;
        neighbProcNo    0;
    }
    procBoundary2to3
    {
        type            processor;
        inGroups        List<word> 1(processor);
        nFaces          376;
        startFace       7724;
        matchTolerance  0.0001;
        myProcNo        2;
        neighbProcNo    3;
    }
)

// ************************************************************************* //
