/*--------------------------------*- C++ -*----------------------------------*\
  =========                 |
  \\      /  F ield         | OpenFOAM: The Open Source CFD Toolbox
   \\    /   O peration     | Website:  https://openfoam.org
    \\  /    A nd           | Version:  9
     \\/     M anipulation  |
\*---------------------------------------------------------------------------*/
FoamFile
{
    format      ascii;
    class       polyBoundaryMesh;
    location    "0/polyMesh";
    object      boundary;
}
// * * * * * * * * * * * * * * * * * * * * * * * * * * * * * * * * * * * * * //

10
(
    ground
    {
        type            patch;
        nFaces          202;
        startFace       9920;
    }
    outlet
    {
        type            patch;
        nFaces          46;
        startFace       10122;
    }
    wall
    {
        type            patch;
        nFaces          670;
        startFace       10168;
    }
    wall2
    {
        type            patch;
        nFaces          0;
        startFace       10838;
    }
    wall3
    {
        type            patch;
        nFaces          0;
        startFace       10838;
    }
    internalPatch
    {
        type            internal;
        inGroups        List<word> 1(internal);
        nFaces          0;
        startFace       10838;
    }
    procBoundary5to0
    {
        type            processor;
        inGroups        List<word> 1(processor);
        nFaces          63;
        startFace       10838;
        matchTolerance  0.0001;
        myProcNo        5;
        neighbProcNo    0;
    }
    procBoundary5to1
    {
        type            processor;
        inGroups        List<word> 1(processor);
        nFaces          192;
        startFace       10901;
        matchTolerance  0.0001;
        myProcNo        5;
        neighbProcNo    1;
    }
    procBoundary5to3
    {
        type            processor;
        inGroups        List<word> 1(processor);
        nFaces          148;
        startFace       11093;
        matchTolerance  0.0001;
        myProcNo        5;
        neighbProcNo    3;
    }
    procBoundary5to4
    {
        type            processor;
        inGroups        List<word> 1(processor);
        nFaces          337;
        startFace       11241;
        matchTolerance  0.0001;
        myProcNo        5;
        neighbProcNo    4;
    }
)

// ************************************************************************* //
