/*--------------------------------*- C++ -*----------------------------------*\
  =========                 |
  \\      /  F ield         | OpenFOAM: The Open Source CFD Toolbox
   \\    /   O peration     | Website:  https://openfoam.org
    \\  /    A nd           | Version:  9
     \\/     M anipulation  |
\*---------------------------------------------------------------------------*/
FoamFile
{
    format      ascii;
    class       polyBoundaryMesh;
    location    "0.00095/polyMesh";
    object      boundary;
}
// * * * * * * * * * * * * * * * * * * * * * * * * * * * * * * * * * * * * * //

6
(
    ground
    {
        type            patch;
        nFaces          3082;
        startFace       146925;
    }
    outlet
    {
        type            patch;
        nFaces          2279;
        startFace       150007;
    }
    wall
    {
        type            patch;
        nFaces          1038;
        startFace       152286;
    }
    wall2
    {
        type            patch;
        nFaces          624;
        startFace       153324;
    }
    wall3
    {
        type            patch;
        nFaces          564;
        startFace       153948;
    }
    internalPatch
    {
        type            internal;
        inGroups        List<word> 1(internal);
        nFaces          0;
        startFace       154512;
    }
)

// ************************************************************************* //
