/*--------------------------------*- C++ -*----------------------------------*\
  =========                 |
  \\      /  F ield         | OpenFOAM: The Open Source CFD Toolbox
   \\    /   O peration     | Website:  https://openfoam.org
    \\  /    A nd           | Version:  9
     \\/     M anipulation  |
\*---------------------------------------------------------------------------*/
FoamFile
{
    format      ascii;
    class       polyBoundaryMesh;
    location    "0.0005/polyMesh";
    object      boundary;
}
// * * * * * * * * * * * * * * * * * * * * * * * * * * * * * * * * * * * * * //

10
(
    ground
    {
        type            patch;
        nFaces          364;
        startFace       17041;
    }
    outlet
    {
        type            patch;
        nFaces          324;
        startFace       17405;
    }
    wall
    {
        type            patch;
        nFaces          0;
        startFace       17729;
    }
    wall2
    {
        type            patch;
        nFaces          1074;
        startFace       17729;
    }
    wall3
    {
        type            patch;
        nFaces          0;
        startFace       18803;
    }
    internalPatch
    {
        type            internal;
        inGroups        List<word> 1(internal);
        nFaces          0;
        startFace       18803;
    }
    procBoundary0to1
    {
        type            processor;
        inGroups        List<word> 1(processor);
        nFaces          400;
        startFace       18803;
        matchTolerance  0.0001;
        myProcNo        0;
        neighbProcNo    1;
    }
    procBoundary0to3
    {
        type            processor;
        inGroups        List<word> 1(processor);
        nFaces          151;
        startFace       19203;
        matchTolerance  0.0001;
        myProcNo        0;
        neighbProcNo    3;
    }
    procBoundary0to4
    {
        type            processor;
        inGroups        List<word> 1(processor);
        nFaces          476;
        startFace       19354;
        matchTolerance  0.0001;
        myProcNo        0;
        neighbProcNo    4;
    }
    procBoundary0to5
    {
        type            processor;
        inGroups        List<word> 1(processor);
        nFaces          29;
        startFace       19830;
        matchTolerance  0.0001;
        myProcNo        0;
        neighbProcNo    5;
    }
)

// ************************************************************************* //
