/*--------------------------------*- C++ -*----------------------------------*\
  =========                 |
  \\      /  F ield         | OpenFOAM: The Open Source CFD Toolbox
   \\    /   O peration     | Website:  https://openfoam.org
    \\  /    A nd           | Version:  9
     \\/     M anipulation  |
\*---------------------------------------------------------------------------*/
FoamFile
{
    format      ascii;
    class       polyBoundaryMesh;
    location    "0.0003/polyMesh";
    object      boundary;
}
// * * * * * * * * * * * * * * * * * * * * * * * * * * * * * * * * * * * * * //

11
(
    ground
    {
        type            patch;
        nFaces          125;
        startFace       6904;
    }
    outlet
    {
        type            patch;
        nFaces          174;
        startFace       7029;
    }
    wall
    {
        type            patch;
        nFaces          0;
        startFace       7203;
    }
    wall2
    {
        type            patch;
        nFaces          564;
        startFace       7203;
    }
    wall3
    {
        type            patch;
        nFaces          0;
        startFace       7767;
    }
    internalPatch
    {
        type            internal;
        inGroups        List<word> 1(internal);
        nFaces          0;
        startFace       7767;
    }
    procBoundary6to0
    {
        type            processor;
        inGroups        List<word> 1(processor);
        nFaces          50;
        startFace       7767;
        matchTolerance  0.0001;
        myProcNo        6;
        neighbProcNo    0;
    }
    procBoundary6to1
    {
        type            processor;
        inGroups        List<word> 1(processor);
        nFaces          10;
        startFace       7817;
        matchTolerance  0.0001;
        myProcNo        6;
        neighbProcNo    1;
    }
    procBoundary6to4
    {
        type            processor;
        inGroups        List<word> 1(processor);
        nFaces          50;
        startFace       7827;
        matchTolerance  0.0001;
        myProcNo        6;
        neighbProcNo    4;
    }
    procBoundary6to5
    {
        type            processor;
        inGroups        List<word> 1(processor);
        nFaces          190;
        startFace       7877;
        matchTolerance  0.0001;
        myProcNo        6;
        neighbProcNo    5;
    }
    procBoundary6to7
    {
        type            processor;
        inGroups        List<word> 1(processor);
        nFaces          278;
        startFace       8067;
        matchTolerance  0.0001;
        myProcNo        6;
        neighbProcNo    7;
    }
)

// ************************************************************************* //
