/*--------------------------------*- C++ -*----------------------------------*\
  =========                 |
  \\      /  F ield         | OpenFOAM: The Open Source CFD Toolbox
   \\    /   O peration     | Website:  https://openfoam.org
    \\  /    A nd           | Version:  9
     \\/     M anipulation  |
\*---------------------------------------------------------------------------*/
FoamFile
{
    format      ascii;
    class       polyBoundaryMesh;
    location    "0.00065/polyMesh";
    object      boundary;
}
// * * * * * * * * * * * * * * * * * * * * * * * * * * * * * * * * * * * * * //

6
(
    ground
    {
        type            patch;
        nFaces          2548;
        startFace       107538;
    }
    outlet
    {
        type            patch;
        nFaces          1994;
        startFace       110086;
    }
    wall
    {
        type            patch;
        nFaces          1038;
        startFace       112080;
    }
    wall2
    {
        type            patch;
        nFaces          624;
        startFace       113118;
    }
    wall3
    {
        type            patch;
        nFaces          564;
        startFace       113742;
    }
    internalPatch
    {
        type            internal;
        inGroups        List<word> 1(internal);
        nFaces          0;
        startFace       114306;
    }
)

// ************************************************************************* //
