/*--------------------------------*- C++ -*----------------------------------*\
  =========                 |
  \\      /  F ield         | OpenFOAM: The Open Source CFD Toolbox
   \\    /   O peration     | Website:  https://openfoam.org
    \\  /    A nd           | Version:  9
     \\/     M anipulation  |
\*---------------------------------------------------------------------------*/
FoamFile
{
    format      ascii;
    class       polyBoundaryMesh;
    location    "0.00195/polyMesh";
    object      boundary;
}
// * * * * * * * * * * * * * * * * * * * * * * * * * * * * * * * * * * * * * //

9
(
    ground
    {
        type            patch;
        nFaces          698;
        startFace       42346;
    }
    outlet
    {
        type            patch;
        nFaces          325;
        startFace       43044;
    }
    wall
    {
        type            patch;
        nFaces          0;
        startFace       43369;
    }
    wall2
    {
        type            patch;
        nFaces          950;
        startFace       43369;
    }
    wall3
    {
        type            patch;
        nFaces          0;
        startFace       44319;
    }
    internalPatch
    {
        type            internal;
        inGroups        List<word> 1(internal);
        nFaces          0;
        startFace       44319;
    }
    procBoundary2to1
    {
        type            processor;
        inGroups        List<word> 1(processor);
        nFaces          989;
        startFace       44319;
        matchTolerance  0.0001;
        myProcNo        2;
        neighbProcNo    1;
    }
    procBoundary2to3
    {
        type            processor;
        inGroups        List<word> 1(processor);
        nFaces          811;
        startFace       45308;
        matchTolerance  0.0001;
        myProcNo        2;
        neighbProcNo    3;
    }
    procBoundary2to4
    {
        type            processor;
        inGroups        List<word> 1(processor);
        nFaces          413;
        startFace       46119;
        matchTolerance  0.0001;
        myProcNo        2;
        neighbProcNo    4;
    }
)

// ************************************************************************* //
