/*--------------------------------*- C++ -*----------------------------------*\
  =========                 |
  \\      /  F ield         | OpenFOAM: The Open Source CFD Toolbox
   \\    /   O peration     | Website:  https://openfoam.org
    \\  /    A nd           | Version:  9
     \\/     M anipulation  |
\*---------------------------------------------------------------------------*/
FoamFile
{
    format      binary;
    class       polyBoundaryMesh;
    location    "0.00215/polyMesh";
    object      boundary;
}
// * * * * * * * * * * * * * * * * * * * * * * * * * * * * * * * * * * * * * //

7
(
    ground
    {
        type            patch;
        nFaces          1256;
        startFace       76933;
    }
    outlet
    {
        type            patch;
        nFaces          339;
        startFace       78189;
    }
    walls
    {
        type            wall;
        inGroups        List<word> 1(wall);
        nFaces          0;
        startFace       78528;
    }
    internalPatch
    {
        type            internal;
        inGroups        List<word> 1(internal);
        nFaces          0;
        startFace       78528;
    }
    procBoundary3to0
    {
        type            processor;
        inGroups        List<word> 1(processor);
        nFaces          320;
        startFace       78528;
        matchTolerance  0.0001;
        myProcNo        3;
        neighbProcNo    0;
    }
    procBoundary3to1
    {
        type            processor;
        inGroups        List<word> 1(processor);
        nFaces          1414;
        startFace       78848;
        matchTolerance  0.0001;
        myProcNo        3;
        neighbProcNo    1;
    }
    procBoundary3to2
    {
        type            processor;
        inGroups        List<word> 1(processor);
        nFaces          2000;
        startFace       80262;
        matchTolerance  0.0001;
        myProcNo        3;
        neighbProcNo    2;
    }
)

// ************************************************************************* //
