/*--------------------------------*- C++ -*----------------------------------*\
  =========                 |
  \\      /  F ield         | OpenFOAM: The Open Source CFD Toolbox
   \\    /   O peration     | Website:  https://openfoam.org
    \\  /    A nd           | Version:  9
     \\/     M anipulation  |
\*---------------------------------------------------------------------------*/
FoamFile
{
    format      ascii;
    class       polyBoundaryMesh;
    location    "0.0001/polyMesh";
    object      boundary;
}
// * * * * * * * * * * * * * * * * * * * * * * * * * * * * * * * * * * * * * //

9
(
    ground
    {
        type            patch;
        nFaces          229;
        startFace       5821;
    }
    outlet
    {
        type            patch;
        nFaces          134;
        startFace       6050;
    }
    wall
    {
        type            patch;
        nFaces          0;
        startFace       6184;
    }
    wall2
    {
        type            patch;
        nFaces          0;
        startFace       6184;
    }
    wall3
    {
        type            patch;
        nFaces          487;
        startFace       6184;
    }
    internalPatch
    {
        type            internal;
        inGroups        List<word> 1(internal);
        nFaces          0;
        startFace       6671;
    }
    procBoundary0to1
    {
        type            processor;
        inGroups        List<word> 1(processor);
        nFaces          134;
        startFace       6671;
        matchTolerance  0.0001;
        myProcNo        0;
        neighbProcNo    1;
    }
    procBoundary0to6
    {
        type            processor;
        inGroups        List<word> 1(processor);
        nFaces          24;
        startFace       6805;
        matchTolerance  0.0001;
        myProcNo        0;
        neighbProcNo    6;
    }
    procBoundary0to7
    {
        type            processor;
        inGroups        List<word> 1(processor);
        nFaces          103;
        startFace       6829;
        matchTolerance  0.0001;
        myProcNo        0;
        neighbProcNo    7;
    }
)

// ************************************************************************* //
