/*--------------------------------*- C++ -*----------------------------------*\
  =========                 |
  \\      /  F ield         | OpenFOAM: The Open Source CFD Toolbox
   \\    /   O peration     | Website:  https://openfoam.org
    \\  /    A nd           | Version:  9
     \\/     M anipulation  |
\*---------------------------------------------------------------------------*/
FoamFile
{
    format      ascii;
    class       polyBoundaryMesh;
    location    "0.0004/polyMesh";
    object      boundary;
}
// * * * * * * * * * * * * * * * * * * * * * * * * * * * * * * * * * * * * * //

10
(
    ground
    {
        type            patch;
        nFaces          318;
        startFace       7509;
    }
    outlet
    {
        type            patch;
        nFaces          509;
        startFace       7827;
    }
    wall
    {
        type            patch;
        nFaces          0;
        startFace       8336;
    }
    wall2
    {
        type            patch;
        nFaces          0;
        startFace       8336;
    }
    wall3
    {
        type            patch;
        nFaces          0;
        startFace       8336;
    }
    internalPatch
    {
        type            internal;
        inGroups        List<word> 1(internal);
        nFaces          0;
        startFace       8336;
    }
    procBoundary5to0
    {
        type            processor;
        inGroups        List<word> 1(processor);
        nFaces          20;
        startFace       8336;
        matchTolerance  0.0001;
        myProcNo        5;
        neighbProcNo    0;
    }
    procBoundary5to3
    {
        type            processor;
        inGroups        List<word> 1(processor);
        nFaces          120;
        startFace       8356;
        matchTolerance  0.0001;
        myProcNo        5;
        neighbProcNo    3;
    }
    procBoundary5to4
    {
        type            processor;
        inGroups        List<word> 1(processor);
        nFaces          149;
        startFace       8476;
        matchTolerance  0.0001;
        myProcNo        5;
        neighbProcNo    4;
    }
    procBoundary5to6
    {
        type            processor;
        inGroups        List<word> 1(processor);
        nFaces          198;
        startFace       8625;
        matchTolerance  0.0001;
        myProcNo        5;
        neighbProcNo    6;
    }
)

// ************************************************************************* //
