/*--------------------------------*- C++ -*----------------------------------*\
  =========                 |
  \\      /  F ield         | OpenFOAM: The Open Source CFD Toolbox
   \\    /   O peration     | Website:  https://openfoam.org
    \\  /    A nd           | Version:  9
     \\/     M anipulation  |
\*---------------------------------------------------------------------------*/
FoamFile
{
    format      ascii;
    class       polyBoundaryMesh;
    location    "0.0002/polyMesh";
    object      boundary;
}
// * * * * * * * * * * * * * * * * * * * * * * * * * * * * * * * * * * * * * //

10
(
    ground
    {
        type            patch;
        nFaces          210;
        startFace       6339;
    }
    outlet
    {
        type            patch;
        nFaces          258;
        startFace       6549;
    }
    wall
    {
        type            patch;
        nFaces          0;
        startFace       6807;
    }
    wall2
    {
        type            patch;
        nFaces          0;
        startFace       6807;
    }
    wall3
    {
        type            patch;
        nFaces          360;
        startFace       6807;
    }
    internalPatch
    {
        type            internal;
        inGroups        List<word> 1(internal);
        nFaces          0;
        startFace       7167;
    }
    procBoundary3to0
    {
        type            processor;
        inGroups        List<word> 1(processor);
        nFaces          93;
        startFace       7167;
        matchTolerance  0.0001;
        myProcNo        3;
        neighbProcNo    0;
    }
    procBoundary3to2
    {
        type            processor;
        inGroups        List<word> 1(processor);
        nFaces          177;
        startFace       7260;
        matchTolerance  0.0001;
        myProcNo        3;
        neighbProcNo    2;
    }
    procBoundary3to6
    {
        type            processor;
        inGroups        List<word> 1(processor);
        nFaces          79;
        startFace       7437;
        matchTolerance  0.0001;
        myProcNo        3;
        neighbProcNo    6;
    }
    procBoundary3to7
    {
        type            processor;
        inGroups        List<word> 1(processor);
        nFaces          89;
        startFace       7516;
        matchTolerance  0.0001;
        myProcNo        3;
        neighbProcNo    7;
    }
)

// ************************************************************************* //
