/*--------------------------------*- C++ -*----------------------------------*\
  =========                 |
  \\      /  F ield         | OpenFOAM: The Open Source CFD Toolbox
   \\    /   O peration     | Website:  https://openfoam.org
    \\  /    A nd           | Version:  9
     \\/     M anipulation  |
\*---------------------------------------------------------------------------*/
FoamFile
{
    format      ascii;
    class       polyBoundaryMesh;
    location    "0.0002/polyMesh";
    object      boundary;
}
// * * * * * * * * * * * * * * * * * * * * * * * * * * * * * * * * * * * * * //

8
(
    ground
    {
        type            patch;
        nFaces          321;
        startFace       7104;
    }
    outlet
    {
        type            patch;
        nFaces          154;
        startFace       7425;
    }
    wall
    {
        type            patch;
        nFaces          0;
        startFace       7579;
    }
    wall2
    {
        type            patch;
        nFaces          0;
        startFace       7579;
    }
    wall3
    {
        type            patch;
        nFaces          0;
        startFace       7579;
    }
    internalPatch
    {
        type            internal;
        inGroups        List<word> 1(internal);
        nFaces          0;
        startFace       7579;
    }
    procBoundary1to0
    {
        type            processor;
        inGroups        List<word> 1(processor);
        nFaces          232;
        startFace       7579;
        matchTolerance  0.0001;
        myProcNo        1;
        neighbProcNo    0;
    }
    procBoundary1to2
    {
        type            processor;
        inGroups        List<word> 1(processor);
        nFaces          499;
        startFace       7811;
        matchTolerance  0.0001;
        myProcNo        1;
        neighbProcNo    2;
    }
)

// ************************************************************************* //
