/*--------------------------------*- C++ -*----------------------------------*\
  =========                 |
  \\      /  F ield         | OpenFOAM: The Open Source CFD Toolbox
   \\    /   O peration     | Website:  https://openfoam.org
    \\  /    A nd           | Version:  9
     \\/     M anipulation  |
\*---------------------------------------------------------------------------*/
FoamFile
{
    format      ascii;
    class       polyBoundaryMesh;
    location    "0.0001/polyMesh";
    object      boundary;
}
// * * * * * * * * * * * * * * * * * * * * * * * * * * * * * * * * * * * * * //

11
(
    ground
    {
        type            patch;
        nFaces          198;
        startFace       5472;
    }
    outlet
    {
        type            patch;
        nFaces          440;
        startFace       5670;
    }
    wall
    {
        type            patch;
        nFaces          0;
        startFace       6110;
    }
    wall2
    {
        type            patch;
        nFaces          0;
        startFace       6110;
    }
    wall3
    {
        type            patch;
        nFaces          0;
        startFace       6110;
    }
    internalPatch
    {
        type            internal;
        inGroups        List<word> 1(internal);
        nFaces          0;
        startFace       6110;
    }
    procBoundary2to1
    {
        type            processor;
        inGroups        List<word> 1(processor);
        nFaces          80;
        startFace       6110;
        matchTolerance  0.0001;
        myProcNo        2;
        neighbProcNo    1;
    }
    procBoundary2to3
    {
        type            processor;
        inGroups        List<word> 1(processor);
        nFaces          120;
        startFace       6190;
        matchTolerance  0.0001;
        myProcNo        2;
        neighbProcNo    3;
    }
    procBoundary2to4
    {
        type            processor;
        inGroups        List<word> 1(processor);
        nFaces          113;
        startFace       6310;
        matchTolerance  0.0001;
        myProcNo        2;
        neighbProcNo    4;
    }
    procBoundary2to6
    {
        type            processor;
        inGroups        List<word> 1(processor);
        nFaces          24;
        startFace       6423;
        matchTolerance  0.0001;
        myProcNo        2;
        neighbProcNo    6;
    }
    procBoundary2to7
    {
        type            processor;
        inGroups        List<word> 1(processor);
        nFaces          45;
        startFace       6447;
        matchTolerance  0.0001;
        myProcNo        2;
        neighbProcNo    7;
    }
)

// ************************************************************************* //
