/*--------------------------------*- C++ -*----------------------------------*\
  =========                 |
  \\      /  F ield         | OpenFOAM: The Open Source CFD Toolbox
   \\    /   O peration     | Website:  https://openfoam.org
    \\  /    A nd           | Version:  9
     \\/     M anipulation  |
\*---------------------------------------------------------------------------*/
FoamFile
{
    format      binary;
    class       polyBoundaryMesh;
    location    "constant/polyMesh";
    object      boundary;
}
// * * * * * * * * * * * * * * * * * * * * * * * * * * * * * * * * * * * * * //

6
(
    ground
    {
        type            patch;
        nFaces          126;
        startFace       3424;
    }
    outlet
    {
        type            patch;
        nFaces          356;
        startFace       3550;
    }
    walls
    {
        type            wall;
        inGroups        List<word> 1(wall);
        nFaces          0;
        startFace       3906;
    }
    internalPatch
    {
        type            internal;
        inGroups        List<word> 1(internal);
        nFaces          0;
        startFace       3906;
    }
    procBoundary1to0
    {
        type            processor;
        inGroups        List<word> 1(processor);
        nFaces          110;
        startFace       3906;
        matchTolerance  0.0001;
        myProcNo        1;
        neighbProcNo    0;
    }
    procBoundary1to2
    {
        type            processor;
        inGroups        List<word> 1(processor);
        nFaces          120;
        startFace       4016;
        matchTolerance  0.0001;
        myProcNo        1;
        neighbProcNo    2;
    }
)

// ************************************************************************* //
