/*--------------------------------*- C++ -*----------------------------------*\
  =========                 |
  \\      /  F ield         | OpenFOAM: The Open Source CFD Toolbox
   \\    /   O peration     | Website:  https://openfoam.org
    \\  /    A nd           | Version:  9
     \\/     M anipulation  |
\*---------------------------------------------------------------------------*/
FoamFile
{
    format      binary;
    class       polyBoundaryMesh;
    location    "0/polyMesh";
    object      boundary;
}
// * * * * * * * * * * * * * * * * * * * * * * * * * * * * * * * * * * * * * //

6
(
    wedge0
    {
        type            wedge;
        inGroups        List<word> 1(wedge);
        nFaces          524;
        startFace       523;
    }
    wedge1
    {
        type            wedge;
        inGroups        List<word> 1(wedge);
        nFaces          524;
        startFace       1047;
    }
    wedge2
    {
        type            wedge;
        inGroups        List<word> 1(wedge);
        nFaces          524;
        startFace       1571;
    }
    wedge3
    {
        type            wedge;
        inGroups        List<word> 1(wedge);
        nFaces          524;
        startFace       2095;
    }
    outlet
    {
        type            patch;
        nFaces          1;
        startFace       2619;
    }
    defaultFaces
    {
        type            empty;
        inGroups        List<word> 1(empty);
        nFaces          0;
        startFace       2620;
    }
)

// ************************************************************************* //
