/*--------------------------------*- C++ -*----------------------------------*\
  =========                 |
  \\      /  F ield         | OpenFOAM: The Open Source CFD Toolbox
   \\    /   O peration     | Website:  https://openfoam.org
    \\  /    A nd           | Version:  9
     \\/     M anipulation  |
\*---------------------------------------------------------------------------*/
FoamFile
{
    format      ascii;
    class       polyBoundaryMesh;
    location    "0.00035/polyMesh";
    object      boundary;
}
// * * * * * * * * * * * * * * * * * * * * * * * * * * * * * * * * * * * * * //

9
(
    ground
    {
        type            patch;
        nFaces          296;
        startFace       14641;
    }
    outlet
    {
        type            patch;
        nFaces          320;
        startFace       14937;
    }
    wall
    {
        type            patch;
        nFaces          0;
        startFace       15257;
    }
    wall2
    {
        type            patch;
        nFaces          966;
        startFace       15257;
    }
    wall3
    {
        type            patch;
        nFaces          110;
        startFace       16223;
    }
    internalPatch
    {
        type            internal;
        inGroups        List<word> 1(internal);
        nFaces          0;
        startFace       16333;
    }
    procBoundary0to1
    {
        type            processor;
        inGroups        List<word> 1(processor);
        nFaces          321;
        startFace       16333;
        matchTolerance  0.0001;
        myProcNo        0;
        neighbProcNo    1;
    }
    procBoundary0to3
    {
        type            processor;
        inGroups        List<word> 1(processor);
        nFaces          276;
        startFace       16654;
        matchTolerance  0.0001;
        myProcNo        0;
        neighbProcNo    3;
    }
    procBoundary0to4
    {
        type            processor;
        inGroups        List<word> 1(processor);
        nFaces          106;
        startFace       16930;
        matchTolerance  0.0001;
        myProcNo        0;
        neighbProcNo    4;
    }
)

// ************************************************************************* //
