/*--------------------------------*- C++ -*----------------------------------*\
  =========                 |
  \\      /  F ield         | OpenFOAM: The Open Source CFD Toolbox
   \\    /   O peration     | Website:  https://openfoam.org
    \\  /    A nd           | Version:  9
     \\/     M anipulation  |
\*---------------------------------------------------------------------------*/
FoamFile
{
    format      ascii;
    class       polyBoundaryMesh;
    location    "0/polyMesh";
    object      boundary;
}
// * * * * * * * * * * * * * * * * * * * * * * * * * * * * * * * * * * * * * //

11
(
    ground
    {
        type            patch;
        nFaces          256;
        startFace       12379;
    }
    outlet
    {
        type            patch;
        nFaces          132;
        startFace       12635;
    }
    wall
    {
        type            patch;
        nFaces          124;
        startFace       12767;
    }
    wall2
    {
        type            patch;
        nFaces          308;
        startFace       12891;
    }
    wall3
    {
        type            patch;
        nFaces          530;
        startFace       13199;
    }
    internalPatch
    {
        type            internal;
        inGroups        List<word> 1(internal);
        nFaces          0;
        startFace       13729;
    }
    procBoundary1to0
    {
        type            processor;
        inGroups        List<word> 1(processor);
        nFaces          17;
        startFace       13729;
        matchTolerance  0.0001;
        myProcNo        1;
        neighbProcNo    0;
    }
    procBoundary1to2
    {
        type            processor;
        inGroups        List<word> 1(processor);
        nFaces          291;
        startFace       13746;
        matchTolerance  0.0001;
        myProcNo        1;
        neighbProcNo    2;
    }
    procBoundary1to3
    {
        type            processor;
        inGroups        List<word> 1(processor);
        nFaces          358;
        startFace       14037;
        matchTolerance  0.0001;
        myProcNo        1;
        neighbProcNo    3;
    }
    procBoundary1to4
    {
        type            processor;
        inGroups        List<word> 1(processor);
        nFaces          154;
        startFace       14395;
        matchTolerance  0.0001;
        myProcNo        1;
        neighbProcNo    4;
    }
    procBoundary1to5
    {
        type            processor;
        inGroups        List<word> 1(processor);
        nFaces          192;
        startFace       14549;
        matchTolerance  0.0001;
        myProcNo        1;
        neighbProcNo    5;
    }
)

// ************************************************************************* //
