/*--------------------------------*- C++ -*----------------------------------*\
  =========                 |
  \\      /  F ield         | OpenFOAM: The Open Source CFD Toolbox
   \\    /   O peration     | Website:  https://openfoam.org
    \\  /    A nd           | Version:  9
     \\/     M anipulation  |
\*---------------------------------------------------------------------------*/
FoamFile
{
    format      ascii;
    class       polyBoundaryMesh;
    location    "0.001/polyMesh";
    object      boundary;
}
// * * * * * * * * * * * * * * * * * * * * * * * * * * * * * * * * * * * * * //

11
(
    ground
    {
        type            patch;
        nFaces          460;
        startFace       24895;
    }
    outlet
    {
        type            patch;
        nFaces          156;
        startFace       25355;
    }
    wall
    {
        type            patch;
        nFaces          430;
        startFace       25511;
    }
    wall2
    {
        type            patch;
        nFaces          226;
        startFace       25941;
    }
    wall3
    {
        type            patch;
        nFaces          530;
        startFace       26167;
    }
    internalPatch
    {
        type            internal;
        inGroups        List<word> 1(internal);
        nFaces          0;
        startFace       26697;
    }
    procBoundary1to0
    {
        type            processor;
        inGroups        List<word> 1(processor);
        nFaces          410;
        startFace       26697;
        matchTolerance  0.0001;
        myProcNo        1;
        neighbProcNo    0;
    }
    procBoundary1to2
    {
        type            processor;
        inGroups        List<word> 1(processor);
        nFaces          464;
        startFace       27107;
        matchTolerance  0.0001;
        myProcNo        1;
        neighbProcNo    2;
    }
    procBoundary1to3
    {
        type            processor;
        inGroups        List<word> 1(processor);
        nFaces          80;
        startFace       27571;
        matchTolerance  0.0001;
        myProcNo        1;
        neighbProcNo    3;
    }
    procBoundary1to4
    {
        type            processor;
        inGroups        List<word> 1(processor);
        nFaces          32;
        startFace       27651;
        matchTolerance  0.0001;
        myProcNo        1;
        neighbProcNo    4;
    }
    procBoundary1to5
    {
        type            processor;
        inGroups        List<word> 1(processor);
        nFaces          384;
        startFace       27683;
        matchTolerance  0.0001;
        myProcNo        1;
        neighbProcNo    5;
    }
)

// ************************************************************************* //
