/*--------------------------------*- C++ -*----------------------------------*\
  =========                 |
  \\      /  F ield         | OpenFOAM: The Open Source CFD Toolbox
   \\    /   O peration     | Website:  https://openfoam.org
    \\  /    A nd           | Version:  9
     \\/     M anipulation  |
\*---------------------------------------------------------------------------*/
FoamFile
{
    format      ascii;
    class       polyBoundaryMesh;
    location    "5e-05/polyMesh";
    object      boundary;
}
// * * * * * * * * * * * * * * * * * * * * * * * * * * * * * * * * * * * * * //

10
(
    ground
    {
        type            patch;
        nFaces          220;
        startFace       10032;
    }
    outlet
    {
        type            patch;
        nFaces          94;
        startFace       10252;
    }
    wall
    {
        type            patch;
        nFaces          104;
        startFace       10346;
    }
    wall2
    {
        type            patch;
        nFaces          184;
        startFace       10450;
    }
    wall3
    {
        type            patch;
        nFaces          530;
        startFace       10634;
    }
    internalPatch
    {
        type            internal;
        inGroups        List<word> 1(internal);
        nFaces          0;
        startFace       11164;
    }
    procBoundary3to1
    {
        type            processor;
        inGroups        List<word> 1(processor);
        nFaces          198;
        startFace       11164;
        matchTolerance  0.0001;
        myProcNo        3;
        neighbProcNo    1;
    }
    procBoundary3to2
    {
        type            processor;
        inGroups        List<word> 1(processor);
        nFaces          65;
        startFace       11362;
        matchTolerance  0.0001;
        myProcNo        3;
        neighbProcNo    2;
    }
    procBoundary3to4
    {
        type            processor;
        inGroups        List<word> 1(processor);
        nFaces          171;
        startFace       11427;
        matchTolerance  0.0001;
        myProcNo        3;
        neighbProcNo    4;
    }
    procBoundary3to5
    {
        type            processor;
        inGroups        List<word> 1(processor);
        nFaces          99;
        startFace       11598;
        matchTolerance  0.0001;
        myProcNo        3;
        neighbProcNo    5;
    }
)

// ************************************************************************* //
