/*--------------------------------*- C++ -*----------------------------------*\
  =========                 |
  \\      /  F ield         | OpenFOAM: The Open Source CFD Toolbox
   \\    /   O peration     | Website:  https://openfoam.org
    \\  /    A nd           | Version:  9
     \\/     M anipulation  |
\*---------------------------------------------------------------------------*/
FoamFile
{
    format      ascii;
    class       polyBoundaryMesh;
    location    "0.00035/polyMesh";
    object      boundary;
}
// * * * * * * * * * * * * * * * * * * * * * * * * * * * * * * * * * * * * * //

6
(
    ground
    {
        type            patch;
        nFaces          1987;
        startFace       73836;
    }
    outlet
    {
        type            patch;
        nFaces          1724;
        startFace       75823;
    }
    wall
    {
        type            patch;
        nFaces          1038;
        startFace       77547;
    }
    wall2
    {
        type            patch;
        nFaces          624;
        startFace       78585;
    }
    wall3
    {
        type            patch;
        nFaces          564;
        startFace       79209;
    }
    internalPatch
    {
        type            internal;
        inGroups        List<word> 1(internal);
        nFaces          0;
        startFace       79773;
    }
)

// ************************************************************************* //
