/*--------------------------------*- C++ -*----------------------------------*\
  =========                 |
  \\      /  F ield         | OpenFOAM: The Open Source CFD Toolbox
   \\    /   O peration     | Website:  https://openfoam.org
    \\  /    A nd           | Version:  9
     \\/     M anipulation  |
\*---------------------------------------------------------------------------*/
FoamFile
{
    format      binary;
    class       polyBoundaryMesh;
    location    "0.00125/polyMesh";
    object      boundary;
}
// * * * * * * * * * * * * * * * * * * * * * * * * * * * * * * * * * * * * * //

7
(
    ground
    {
        type            patch;
        nFaces          908;
        startFace       47719;
    }
    outlet
    {
        type            patch;
        nFaces          231;
        startFace       48627;
    }
    walls
    {
        type            wall;
        inGroups        List<word> 1(wall);
        nFaces          0;
        startFace       48858;
    }
    internalPatch
    {
        type            internal;
        inGroups        List<word> 1(internal);
        nFaces          0;
        startFace       48858;
    }
    procBoundary3to0
    {
        type            processor;
        inGroups        List<word> 1(processor);
        nFaces          320;
        startFace       48858;
        matchTolerance  0.0001;
        myProcNo        3;
        neighbProcNo    0;
    }
    procBoundary3to1
    {
        type            processor;
        inGroups        List<word> 1(processor);
        nFaces          1021;
        startFace       49178;
        matchTolerance  0.0001;
        myProcNo        3;
        neighbProcNo    1;
    }
    procBoundary3to2
    {
        type            processor;
        inGroups        List<word> 1(processor);
        nFaces          1628;
        startFace       50199;
        matchTolerance  0.0001;
        myProcNo        3;
        neighbProcNo    2;
    }
)

// ************************************************************************* //
