/*--------------------------------*- C++ -*----------------------------------*\
  =========                 |
  \\      /  F ield         | OpenFOAM: The Open Source CFD Toolbox
   \\    /   O peration     | Website:  https://openfoam.org
    \\  /    A nd           | Version:  9
     \\/     M anipulation  |
\*---------------------------------------------------------------------------*/
FoamFile
{
    format      ascii;
    class       vectorField;
    location    "0/polyMesh";
    object      points0;
}
// * * * * * * * * * * * * * * * * * * * * * * * * * * * * * * * * * * * * * //


156
(
(-0.760822 -1 0.629443)
(-0.762912 -0.892431 0.630051)
(-0.76187 -0.893199 0.761804)
(-0.759231 -1 0.759649)
(-0.763059 -0.762975 0.630698)
(-0.762608 -0.762459 0.762569)
(-0.764424 -0.631054 0.631059)
(-0.763122 -0.630638 0.763017)
(-0.763152 -0.763108 0.5)
(-0.764399 -0.63118 0.500003)
(-0.763152 -0.50002 0.500002)
(-0.764423 -0.500024 0.63117)
(-0.763248 -0.500016 0.763105)
(-0.763324 -0.500003 0.892336)
(-0.763012 -0.629928 0.892438)
(-0.761651 -0.5 1)
(-0.761246 -0.629166 1)
(-0.759543 -0.759035 1)
(-0.761843 -0.76171 0.893278)
(-0.755622 -0.883005 1)
(-0.759455 -0.896138 0.896666)
(-0.87734 -0.876788 1)
(-0.895797 -0.8954 0.896234)
(-0.858633 -1 1)
(-0.876482 -1 0.877189)
(-0.755421 -1 0.88351)
(-0.631108 -0.764358 0.631078)
(-0.631209 -0.764351 0.499975)
(-0.630679 -0.89131 0.630681)
(-0.630046 -1 0.630123)
(-0.500021 -1 0.630244)
(-0.500028 -0.891129 0.630839)
(-0.370017 -1 0.630012)
(-0.369394 -0.891324 0.630619)
(-0.239264 -1 0.629274)
(-0.237216 -0.892459 0.629933)
(-0.50001 -0.76311 0.499958)
(-0.50003 -0.764365 0.631187)
(-0.368953 -0.764381 0.631049)
(-0.237004 -0.763042 0.630669)
(-0.763094 -0.892329 0.5)
(-0.76131 -1 0.500012)
(-1 -0.761177 0.50001)
(-1 -0.760842 0.629264)
(-1 -0.759207 0.75923)
(-1 -0.755114 0.883206)
(-1 -0.748323 1)
(-0.883276 -0.755086 1)
(-0.892364 -0.763105 0.500015)
(-0.892435 -0.762684 0.630003)
(-0.893271 -0.761539 0.761791)
(-0.896528 -0.759163 0.896297)
(-1 -1 0.5)
(-1 -1 1)
(-1 -1 0.748323)
(-0.896634 -0.896696 0.628712)
(-0.885326 -1 0.500009)
(-1 -0.885442 0.499912)
(-1 -1 0.625)
(-1 -1 0.858633)
(-1 -0.858633 1)
(-0.883031 -1 0.755703)
(-1 -0.88275 0.755443)
(-0.896898 -0.896804 0.499989)
(-0.885031 -1 0.627826)
(-1 -0.884824 0.62768)
(-0.896248 -0.896268 0.759348)
(-1 -0.876041 0.877132)
(-1 -0.500066 0.499998)
(-1 -0.5 1)
(-1 -0.500058 0.76106)
(-0.89133 -0.630633 0.630621)
(-0.896993 -0.628544 0.896632)
(-1 -0.63024 0.500011)
(-0.890823 -0.500047 0.499998)
(-1 -0.500073 0.630148)
(-1 -0.500036 0.885379)
(-1 -0.625 1)
(-0.88585 -0.499995 1)
(-1 -0.629264 0.760702)
(-0.892395 -0.500043 0.763067)
(-0.891143 -0.500048 0.630788)
(-0.891137 -0.630836 0.500008)
(-1 -0.630057 0.629968)
(-1 -0.627524 0.884985)
(-0.892481 -0.629932 0.762804)
(-0.89715 -0.500008 0.896779)
(-0.885445 -0.627502 1)
(-0.236852 -0.76313 0.499983)
(-0.368806 -0.764365 0.499944)
(-0.500013 -1 0.499942)
(-0.238779 -1 0.499942)
(-0.630277 -1 0.499984)
(-0.369765 -1 0.49992)
(-0.50001 -0.890813 0.499941)
(-0.236849 -0.892362 0.499932)
(-0.369161 -0.891128 0.499918)
(-0.630852 -0.891121 0.499973)
(-0.629447 -0.760722 1)
(-0.50009 -0.76125 1)
(-0.370774 -0.760905 1)
(-0.240719 -0.759353 1)
(-0.1167 -0.755637 1)
(-0.630102 -0.762837 0.892457)
(-0.500073 -0.763054 0.892353)
(-0.370036 -0.762785 0.892439)
(-0.238189 -0.761844 0.893253)
(-0.103745 -0.759505 0.896486)
(-0.63075 -0.762995 0.763043)
(-0.500054 -0.763131 0.763144)
(-0.369357 -0.763032 0.763014)
(-0.237513 -0.762581 0.762513)
(-0.5 -1 1)
(-0.500014 -1 0.761267)
(-0.748323 -1 1)
(-0.251677 -1 1)
(-0.240881 -1 0.759315)
(-0.628741 -0.896599 0.896847)
(-0.371419 -0.896743 0.896663)
(-0.104432 -0.895745 0.895878)
(-0.499922 -1 0.88554)
(-0.625 -1 1)
(-0.375 -1 1)
(-0.500058 -0.885326 1)
(-0.141367 -1 1)
(-0.238451 -0.893255 0.761647)
(-0.629295 -1 0.761044)
(-0.370799 -1 0.760828)
(-0.500041 -0.892366 0.763178)
(-0.244746 -1 0.882997)
(-0.244392 -0.883331 1)
(-0.370105 -0.892467 0.762842)
(-0.372433 -0.884967 1)
(-0.627671 -1 0.885046)
(-0.372542 -1 0.885061)
(-0.123595 -1 0.876649)
(-0.630041 -0.892409 0.762837)
(-0.500033 -0.896874 0.89686)
(-0.627828 -0.88501 1)
(-0.240607 -0.89629 0.896384)
(-0.122961 -0.877222 1)
(-0.500012 -0.499995 0.500014)
(-0.500042 -0.50004 1)
(-0.500038 -0.500032 0.763125)
(-0.630796 -0.630629 0.89132)
(-0.369351 -0.630677 0.891318)
(-0.500043 -0.50004 0.890815)
(-0.500081 -0.630248 1)
(-0.630431 -0.500016 1)
(-0.500056 -0.6312 0.764376)
(-0.631291 -0.50002 0.764366)
(-0.631172 -0.631066 0.76438)
(-0.500071 -0.630838 0.89113)
(-0.630978 -0.500017 0.891126)
(-0.630235 -0.629981 1)
(-0.369979 -0.630077 1)
)


// ************************************************************************* //
