/*--------------------------------*- C++ -*----------------------------------*\
  =========                 |
  \\      /  F ield         | OpenFOAM: The Open Source CFD Toolbox
   \\    /   O peration     | Website:  https://openfoam.org
    \\  /    A nd           | Version:  9
     \\/     M anipulation  |
\*---------------------------------------------------------------------------*/
FoamFile
{
    format      ascii;
    class       polyBoundaryMesh;
    location    "0.00015/polyMesh";
    object      boundary;
}
// * * * * * * * * * * * * * * * * * * * * * * * * * * * * * * * * * * * * * //

8
(
    ground
    {
        type            patch;
        nFaces          252;
        startFace       11739;
    }
    outlet
    {
        type            patch;
        nFaces          316;
        startFace       11991;
    }
    wall
    {
        type            patch;
        nFaces          0;
        startFace       12307;
    }
    wall2
    {
        type            patch;
        nFaces          880;
        startFace       12307;
    }
    wall3
    {
        type            patch;
        nFaces          0;
        startFace       13187;
    }
    internalPatch
    {
        type            internal;
        inGroups        List<word> 1(internal);
        nFaces          0;
        startFace       13187;
    }
    procBoundary3to0
    {
        type            processor;
        inGroups        List<word> 1(processor);
        nFaces          222;
        startFace       13187;
        matchTolerance  0.0001;
        myProcNo        3;
        neighbProcNo    0;
    }
    procBoundary3to4
    {
        type            processor;
        inGroups        List<word> 1(processor);
        nFaces          232;
        startFace       13409;
        matchTolerance  0.0001;
        myProcNo        3;
        neighbProcNo    4;
    }
)

// ************************************************************************* //
