/*--------------------------------*- C++ -*----------------------------------*\
  =========                 |
  \\      /  F ield         | OpenFOAM: The Open Source CFD Toolbox
   \\    /   O peration     | Website:  https://openfoam.org
    \\  /    A nd           | Version:  9
     \\/     M anipulation  |
\*---------------------------------------------------------------------------*/
FoamFile
{
    format      ascii;
    class       polyBoundaryMesh;
    location    "0.00215/polyMesh";
    object      boundary;
}
// * * * * * * * * * * * * * * * * * * * * * * * * * * * * * * * * * * * * * //

11
(
    ground
    {
        type            patch;
        nFaces          688;
        startFace       50810;
    }
    outlet
    {
        type            patch;
        nFaces          340;
        startFace       51498;
    }
    wall
    {
        type            patch;
        nFaces          0;
        startFace       51838;
    }
    wall2
    {
        type            patch;
        nFaces          972;
        startFace       51838;
    }
    wall3
    {
        type            patch;
        nFaces          0;
        startFace       52810;
    }
    internalPatch
    {
        type            internal;
        inGroups        List<word> 1(internal);
        nFaces          0;
        startFace       52810;
    }
    procBoundary2to0
    {
        type            processor;
        inGroups        List<word> 1(processor);
        nFaces          145;
        startFace       52810;
        matchTolerance  0.0001;
        myProcNo        2;
        neighbProcNo    0;
    }
    procBoundary2to1
    {
        type            processor;
        inGroups        List<word> 1(processor);
        nFaces          1334;
        startFace       52955;
        matchTolerance  0.0001;
        myProcNo        2;
        neighbProcNo    1;
    }
    procBoundary2to3
    {
        type            processor;
        inGroups        List<word> 1(processor);
        nFaces          874;
        startFace       54289;
        matchTolerance  0.0001;
        myProcNo        2;
        neighbProcNo    3;
    }
    procBoundary2to4
    {
        type            processor;
        inGroups        List<word> 1(processor);
        nFaces          841;
        startFace       55163;
        matchTolerance  0.0001;
        myProcNo        2;
        neighbProcNo    4;
    }
    procBoundary2to5
    {
        type            processor;
        inGroups        List<word> 1(processor);
        nFaces          37;
        startFace       56004;
        matchTolerance  0.0001;
        myProcNo        2;
        neighbProcNo    5;
    }
)

// ************************************************************************* //
