/*--------------------------------*- C++ -*----------------------------------*\
  =========                 |
  \\      /  F ield         | OpenFOAM: The Open Source CFD Toolbox
   \\    /   O peration     | Website:  https://openfoam.org
    \\  /    A nd           | Version:  9
     \\/     M anipulation  |
\*---------------------------------------------------------------------------*/
FoamFile
{
    format      ascii;
    class       polyBoundaryMesh;
    location    "0.0004/polyMesh";
    object      boundary;
}
// * * * * * * * * * * * * * * * * * * * * * * * * * * * * * * * * * * * * * //

6
(
    ground
    {
        type            patch;
        nFaces          2050;
        startFace       77907;
    }
    outlet
    {
        type            patch;
        nFaces          1763;
        startFace       79957;
    }
    wall
    {
        type            patch;
        nFaces          1038;
        startFace       81720;
    }
    wall2
    {
        type            patch;
        nFaces          624;
        startFace       82758;
    }
    wall3
    {
        type            patch;
        nFaces          564;
        startFace       83382;
    }
    internalPatch
    {
        type            internal;
        inGroups        List<word> 1(internal);
        nFaces          0;
        startFace       83946;
    }
)

// ************************************************************************* //
