/*--------------------------------*- C++ -*----------------------------------*\
  =========                 |
  \\      /  F ield         | OpenFOAM: The Open Source CFD Toolbox
   \\    /   O peration     | Website:  https://openfoam.org
    \\  /    A nd           | Version:  9
     \\/     M anipulation  |
\*---------------------------------------------------------------------------*/
FoamFile
{
    format      ascii;
    class       polyBoundaryMesh;
    location    "0.00025/polyMesh";
    object      boundary;
}
// * * * * * * * * * * * * * * * * * * * * * * * * * * * * * * * * * * * * * //

6
(
    ground
    {
        type            patch;
        nFaces          1759;
        startFace       64524;
    }
    outlet
    {
        type            patch;
        nFaces          1676;
        startFace       66283;
    }
    wall
    {
        type            patch;
        nFaces          1038;
        startFace       67959;
    }
    wall2
    {
        type            patch;
        nFaces          624;
        startFace       68997;
    }
    wall3
    {
        type            patch;
        nFaces          564;
        startFace       69621;
    }
    internalPatch
    {
        type            internal;
        inGroups        List<word> 1(internal);
        nFaces          0;
        startFace       70185;
    }
)

// ************************************************************************* //
