/*--------------------------------*- C++ -*----------------------------------*\
  =========                 |
  \\      /  F ield         | OpenFOAM: The Open Source CFD Toolbox
   \\    /   O peration     | Website:  https://openfoam.org
    \\  /    A nd           | Version:  9
     \\/     M anipulation  |
\*---------------------------------------------------------------------------*/
FoamFile
{
    format      binary;
    class       polyBoundaryMesh;
    location    "0.00135/polyMesh";
    object      boundary;
}
// * * * * * * * * * * * * * * * * * * * * * * * * * * * * * * * * * * * * * //

7
(
    ground
    {
        type            patch;
        nFaces          541;
        startFace       54608;
    }
    outlet
    {
        type            patch;
        nFaces          380;
        startFace       55149;
    }
    walls
    {
        type            wall;
        inGroups        List<word> 1(wall);
        nFaces          0;
        startFace       55529;
    }
    internalPatch
    {
        type            internal;
        inGroups        List<word> 1(internal);
        nFaces          0;
        startFace       55529;
    }
    procBoundary2to0
    {
        type            processor;
        inGroups        List<word> 1(processor);
        nFaces          795;
        startFace       55529;
        matchTolerance  0.0001;
        myProcNo        2;
        neighbProcNo    0;
    }
    procBoundary2to1
    {
        type            processor;
        inGroups        List<word> 1(processor);
        nFaces          258;
        startFace       56324;
        matchTolerance  0.0001;
        myProcNo        2;
        neighbProcNo    1;
    }
    procBoundary2to3
    {
        type            processor;
        inGroups        List<word> 1(processor);
        nFaces          1670;
        startFace       56582;
        matchTolerance  0.0001;
        myProcNo        2;
        neighbProcNo    3;
    }
)

// ************************************************************************* //
