/*--------------------------------*- C++ -*----------------------------------*\
  =========                 |
  \\      /  F ield         | OpenFOAM: The Open Source CFD Toolbox
   \\    /   O peration     | Website:  https://openfoam.org
    \\  /    A nd           | Version:  9
     \\/     M anipulation  |
\*---------------------------------------------------------------------------*/
FoamFile
{
    format      ascii;
    class       polyBoundaryMesh;
    location    "constant/polyMesh";
    object      boundary;
}
// * * * * * * * * * * * * * * * * * * * * * * * * * * * * * * * * * * * * * //

6
(
    ground
    {
        type            patch;
        nFaces          1186;
        startFace       43728;
    }
    outlet
    {
        type            patch;
        nFaces          1661;
        startFace       44914;
    }
    wall
    {
        type            patch;
        nFaces          1038;
        startFace       46575;
    }
    wall2
    {
        type            patch;
        nFaces          624;
        startFace       47613;
    }
    wall3
    {
        type            patch;
        nFaces          564;
        startFace       48237;
    }
    internalPatch
    {
        type            internal;
        inGroups        List<word> 1(internal);
        nFaces          0;
        startFace       48801;
    }
)

// ************************************************************************* //
