/*--------------------------------*- C++ -*----------------------------------*\
  =========                 |
  \\      /  F ield         | OpenFOAM: The Open Source CFD Toolbox
   \\    /   O peration     | Website:  https://openfoam.org
    \\  /    A nd           | Version:  9
     \\/     M anipulation  |
\*---------------------------------------------------------------------------*/
FoamFile
{
    format      ascii;
    class       polyBoundaryMesh;
    location    "0.0002/polyMesh";
    object      boundary;
}
// * * * * * * * * * * * * * * * * * * * * * * * * * * * * * * * * * * * * * //

10
(
    ground
    {
        type            patch;
        nFaces          146;
        startFace       6015;
    }
    outlet
    {
        type            patch;
        nFaces          593;
        startFace       6161;
    }
    wall
    {
        type            patch;
        nFaces          0;
        startFace       6754;
    }
    wall2
    {
        type            patch;
        nFaces          29;
        startFace       6754;
    }
    wall3
    {
        type            patch;
        nFaces          0;
        startFace       6783;
    }
    internalPatch
    {
        type            internal;
        inGroups        List<word> 1(internal);
        nFaces          0;
        startFace       6783;
    }
    procBoundary4to0
    {
        type            processor;
        inGroups        List<word> 1(processor);
        nFaces          160;
        startFace       6783;
        matchTolerance  0.0001;
        myProcNo        4;
        neighbProcNo    0;
    }
    procBoundary4to5
    {
        type            processor;
        inGroups        List<word> 1(processor);
        nFaces          183;
        startFace       6943;
        matchTolerance  0.0001;
        myProcNo        4;
        neighbProcNo    5;
    }
    procBoundary4to6
    {
        type            processor;
        inGroups        List<word> 1(processor);
        nFaces          63;
        startFace       7126;
        matchTolerance  0.0001;
        myProcNo        4;
        neighbProcNo    6;
    }
    procBoundary4to7
    {
        type            processor;
        inGroups        List<word> 1(processor);
        nFaces          98;
        startFace       7189;
        matchTolerance  0.0001;
        myProcNo        4;
        neighbProcNo    7;
    }
)

// ************************************************************************* //
