/*--------------------------------*- C++ -*----------------------------------*\
  =========                 |
  \\      /  F ield         | OpenFOAM: The Open Source CFD Toolbox
   \\    /   O peration     | Website:  https://openfoam.org
    \\  /    A nd           | Version:  9
     \\/     M anipulation  |
\*---------------------------------------------------------------------------*/
FoamFile
{
    format      ascii;
    class       polyBoundaryMesh;
    location    "0/polyMesh";
    object      boundary;
}
// * * * * * * * * * * * * * * * * * * * * * * * * * * * * * * * * * * * * * //

13
(
    ground
    {
        type            patch;
        nFaces          108;
        startFace       5289;
    }
    outlet
    {
        type            patch;
        nFaces          151;
        startFace       5397;
    }
    wall
    {
        type            patch;
        nFaces          0;
        startFace       5548;
    }
    wall2
    {
        type            patch;
        nFaces          447;
        startFace       5548;
    }
    wall3
    {
        type            patch;
        nFaces          0;
        startFace       5995;
    }
    internalPatch
    {
        type            internal;
        inGroups        List<word> 1(internal);
        nFaces          0;
        startFace       5995;
    }
    procBoundary7to0
    {
        type            processor;
        inGroups        List<word> 1(processor);
        nFaces          52;
        startFace       5995;
        matchTolerance  0.0001;
        myProcNo        7;
        neighbProcNo    0;
    }
    procBoundary7to1
    {
        type            processor;
        inGroups        List<word> 1(processor);
        nFaces          22;
        startFace       6047;
        matchTolerance  0.0001;
        myProcNo        7;
        neighbProcNo    1;
    }
    procBoundary7to2
    {
        type            processor;
        inGroups        List<word> 1(processor);
        nFaces          20;
        startFace       6069;
        matchTolerance  0.0001;
        myProcNo        7;
        neighbProcNo    2;
    }
    procBoundary7to3
    {
        type            processor;
        inGroups        List<word> 1(processor);
        nFaces          4;
        startFace       6089;
        matchTolerance  0.0001;
        myProcNo        7;
        neighbProcNo    3;
    }
    procBoundary7to4
    {
        type            processor;
        inGroups        List<word> 1(processor);
        nFaces          44;
        startFace       6093;
        matchTolerance  0.0001;
        myProcNo        7;
        neighbProcNo    4;
    }
    procBoundary7to5
    {
        type            processor;
        inGroups        List<word> 1(processor);
        nFaces          125;
        startFace       6137;
        matchTolerance  0.0001;
        myProcNo        7;
        neighbProcNo    5;
    }
    procBoundary7to6
    {
        type            processor;
        inGroups        List<word> 1(processor);
        nFaces          209;
        startFace       6262;
        matchTolerance  0.0001;
        myProcNo        7;
        neighbProcNo    6;
    }
)

// ************************************************************************* //
