/*--------------------------------*- C++ -*----------------------------------*\
  =========                 |
  \\      /  F ield         | OpenFOAM: The Open Source CFD Toolbox
   \\    /   O peration     | Website:  https://openfoam.org
    \\  /    A nd           | Version:  9
     \\/     M anipulation  |
\*---------------------------------------------------------------------------*/
FoamFile
{
    format      ascii;
    class       vectorField;
    location    "0/polyMesh";
    object      points0;
}
// * * * * * * * * * * * * * * * * * * * * * * * * * * * * * * * * * * * * * //


2854
(
(-1.4 4 0)
(-1.4 4 0.25)
(-1.2 4 0.25)
(-1.2 4 0)
(-1.2 3.8 0.25)
(-1.2 3.8 0.125)
(-1.2 3.8 0)
(-1.2 3.7 0.125)
(-1.2 3.7 0)
(-1.2 3.6 0.125)
(-1.2 3.6 0)
(-1.2 3.7 0.25)
(-1.2 3.6 0.25)
(-1.2 3.7 0.375)
(-1.2 3.6 0.375)
(-1.2 3.7 0.5)
(-1.2 3.6 0.5)
(-1.2 3.7 0.625)
(-1.2 3.6 0.625)
(-1.2 3.7 0.75)
(-1.2 3.6 0.75)
(-1.2 3.7 0.875)
(-1.2 3.6 0.875)
(-1.2 3.7 1)
(-1.2 3.6 1)
(-1.2 3.7 1.125)
(-1.2 3.6 1.125)
(-1.2 3.7 1.25)
(-1.2 3.6 1.25)
(-1.4 4 1.25)
(-1.2 4 1.25)
(-1.2 4 1)
(-1.4 4 1)
(-1.4 4 0.5)
(-1.2 4 0.5)
(-1.2 3.8 0.5)
(-1.2 3.8 0.375)
(-1.2 3.8 0.625)
(-1.2 3.8 0.75)
(-1.2 3.8 0.875)
(-1.2 3.8 1)
(-1.2 3.8 1.125)
(-1.2 3.8 1.25)
(-1.2 4 0.75)
(-1.4 4 0.75)
(-0.6 2.2 5)
(-0.2 2.2 5)
(-0.2 2.2 4.5)
(-0.6 2.2 4.5)
(0.2 2.2 5)
(0.2 2.2 4.5)
(0.2 2.2 4)
(-0.2 2.2 4)
(0.2 2.2 3.5)
(-0.2 2.2 3.5)
(0.2 2.2 3)
(-0.2 2.2 3)
(-0.6 2.2 3)
(-0.6 2.2 3.5)
(-0.6 2.2 4)
(1.4 3.4 3.5)
(1.4 3.4 4)
(1.4 3.8 4)
(1.4 3.8 3.5)
(1 3.4 3.5)
(1 3.4 4)
(1.4 3.4 3)
(1 3.4 3)
(1.4 3.8 3)
(1.4 4.2 3.5)
(1.4 4.2 3)
(1.4 4.2 4)
(1.4 3.8 4.5)
(1.4 4.2 4.5)
(1.4 3.4 4.5)
(1 3.4 4.5)
(0.6 3.4 4)
(0.6 3.4 4.5)
(0.6 3.4 3.5)
(0.6 3.4 3)
(1 3 3)
(0.6 3 3)
(0.6 3 3.5)
(0.6 2.6 3)
(0.6 2.6 3.5)
(0.6 2.2 3)
(0.6 2.2 3.5)
(0.6 2.2 4)
(0.6 2.2 4.5)
(0.6 2.2 5)
(0.6 2.6 5)
(0.6 2.6 4.5)
(0.6 3 5)
(0.6 3 4.5)
(0.6 3.4 5)
(1 3.4 5)
(1.4 3.4 5)
(1.4 3.8 5)
(1.4 4.2 5)
(1.4 4.6 5)
(1.4 4.6 4.5)
(1.4 5 5)
(1.4 5 4.5)
(1.4 5 4)
(1.4 4.6 4)
(1.4 5 3.5)
(1.4 4.6 3.5)
(1.4 5 3)
(1.4 4.6 3)
(1.4 5 2.5)
(1.4 4.6 2.5)
(1.8 5 2.5)
(1.8 4.6 2.5)
(1.8 4.2 2.5)
(1.4 4.2 2.5)
(1.8 3.8 2.5)
(1.4 3.8 2.5)
(1.8 3.4 2.5)
(1.4 3.4 2.5)
(1.4 3.6 2.5)
(1.8 3.8 2)
(1.8 3.6 2)
(1.8 3.4 2)
(0.6 3 4)
(0.6 2.6 4)
(1.8 4.2 2)
(1.8 4.6 2)
(1.8 4.2 1.5)
(1.8 3.8 1.5)
(1.8 3.8 1.75)
(1.8 4.6 1.5)
(1.8 5 2)
(1.8 5 1.5)
(1.8 5 1)
(1.8 4.6 1)
(1.8 5 0.5)
(1.8 4.6 0.5)
(1.8 5 0)
(1.8 4.6 0)
(1.8 4.2 0)
(1.8 4.2 0.5)
(1.8 3.8 0)
(1.8 3.8 0.25)
(1.8 3.8 0.5)
(1.6 3.8 0)
(1.6 3.8 0.25)
(1.6 3.6 0)
(1.6 3.6 0.25)
(1.6 3.6 0.5)
(1.6 3.8 0.5)
(1.6 3.6 0.75)
(1.6 3.8 0.75)
(1.6 3.6 1)
(1.6 3.8 1)
(1.6 3.6 1.25)
(1.6 3.8 1.25)
(1.6 3.6 1.5)
(1.6 3.8 1.5)
(1.6 3.6 1.75)
(1.6 3.8 1.75)
(1.6 3.4 1.5)
(1.6 3.4 1.75)
(1.6 3.4 2)
(1.6 3.6 2)
(1.6 3.8 2)
(1.8 3.8 1.25)
(1.8 4.2 1)
(1.8 3.8 1)
(1.8 3.8 0.75)
(1 3.4 2.5)
(1 3.2 2.5)
(1 3 2.5)
(1.2 3.4 2.5)
(1.4 3.4 2.25)
(1.2 3.4 2.25)
(1.4 3.4 2)
(1.4 3.6 1.5)
(1.4 3.5 1.5)
(1.4 3.4 1.5)
(1.4 3.6 1.25)
(1.4 3.6 1.375)
(1.1 3.6 1.25)
(1.1 3.6 1.375)
(1.2 3.6 1.375)
(1.2 3.6 1.25)
(1.1 3.6 1.5)
(1.2 3.6 1.5)
(1.1 3.5 1.5)
(1.2 3.5 1.5)
(1.1 3.4 1.5)
(1.2 3.4 1.5)
(0.6 3.2 1.5)
(0.5 3.2 1.5)
(0.5 3.2 1.625)
(0.6 3.2 1.625)
(0.4 3.2 1.5)
(0.4 3.2 1.625)
(0.4 3.1 1.5)
(0.4 3.1 1.625)
(0.4 3 1.5)
(0.4 3 1.625)
(1 3.2 2.25)
(1 3 2.25)
(1 3.4 2.25)
(1.2 3.4 2)
(1 3.4 2)
(1.3 3.5 1.5)
(1.3 3.4 1.5)
(1.3 3.6 1.5)
(1.3 3.6 1.375)
(1.3 3.6 1.25)
(0.5 3.2 1.75)
(0.6 3.2 1.75)
(0.4 3.2 1.75)
(0.4 3.1 1.75)
(0.4 3 1.75)
(0.6 3 2)
(0.6 3.2 2)
(0.4 3.2 2)
(0.4 3 2)
(1 3.2 2)
(1 3 2)
(1.4 3 3)
(1.4 3.2 2.5)
(1.4 3 2.5)
(1.8 3 2.5)
(1.8 3.2 2)
(1.8 3 2)
(1.6 3.4 1.25)
(2.2 3.4 2)
(2.2 3.8 2)
(2.2 3.8 2.5)
(2.2 4.2 2.5)
(2.2 4.6 2.5)
(2.2 5 2.5)
(0.2 1.8 5)
(0.2 1.8 4.5)
(0.2 1.4 5)
(0.2 1.4 4.5)
(0.2 1.8 3.5)
(0.2 1.8 3)
(0.2 1.8 4)
(0.2 1.4 4)
(0.2 1.4 3.5)
(0.2 1.4 3)
(-1.4 3.8 0)
(-1.4 3.8 0.5)
(-1.4 3.8 1)
(-1.6 3.6 0.25)
(-1.6 4 0.25)
(-1.6 3.6 0.75)
(-1.6 4 0.75)
(-1.4 3.6 0)
(-1.6 3.8 0)
(-1.4 3.8 0.25)
(-1.4 3.6 0.5)
(-1.6 3.8 0.5)
(-1.4 3.8 0.75)
(-1.4 3.8 1.25)
(-1.4 3.6 0.25)
(-1.6 3.8 0.25)
(-1.6 3.6 0.5)
(-1.6 4 0.5)
(-1.4 3.6 0.75)
(-1.6 3.8 0.75)
(-1.6 3.6 0)
(-1.6 4 0)
(-1.5 3.7 0.125)
(-1.5 3.7 0.375)
(-1.3 3.7 0.125)
(-1.3 3.7 0.375)
(-1.5 3.7 0.625)
(-1.3 3.7 0.625)
(-1.3 3.7 0.875)
(-1.3 3.7 1.125)
(-1.4 3.7 0)
(-1.5 3.8 0)
(-1.3 3.8 0)
(-1.4 3.8 0.125)
(-1.4 3.8 0.375)
(-1.4 3.7 0.5)
(-1.5 3.8 0.5)
(-1.3 3.8 0.5)
(-1.4 3.8 0.625)
(-1.4 3.8 0.875)
(-1.3 3.8 1)
(-1.4 3.8 1.125)
(-1.5 3.6 0.25)
(-1.6 3.7 0.25)
(-1.6 3.6 0.375)
(-1.6 3.6 0.125)
(-1.3 3.6 0.25)
(-1.6 3.6 0.625)
(-1.5 3.6 0.75)
(-1.6 3.7 0.75)
(-1.3 3.6 0.75)
(-1.3 3.6 1.25)
(-1.4 3.6 0.125)
(-1.5 3.6 0)
(-1.3 3.6 0)
(-1.6 3.8 0.125)
(-1.6 3.7 0)
(-1.4 3.7 0.25)
(-1.5 3.8 0.25)
(-1.3 3.8 0.25)
(-1.4 3.6 0.375)
(-1.5 3.6 0.5)
(-1.3 3.6 0.5)
(-1.4 3.6 0.625)
(-1.6 3.8 0.375)
(-1.6 3.7 0.5)
(-1.6 3.8 0.625)
(-1.4 3.7 0.75)
(-1.5 3.8 0.75)
(-1.3 3.8 0.75)
(-1.3 3.6 1)
(-1.3 3.8 1.25)
(-1.3 3.6 0.125)
(-1.3 3.8 0.125)
(-1.3 3.6 0.625)
(-1.3 3.8 0.625)
(-1.3 3.6 1.125)
(-1.3 3.8 1.125)
(-1.5 3.6 0.125)
(-1.6 3.7 0.125)
(-1.5 3.7 0.25)
(-1.4 3.7 0.125)
(-1.5 3.8 0.125)
(-1.5 3.6 0.375)
(-1.6 3.7 0.375)
(-1.4 3.7 0.375)
(-1.5 3.8 0.375)
(-1.5 3.7 0.5)
(-1.3 3.7 0.25)
(-1.3 3.6 0.375)
(-1.3 3.8 0.375)
(-1.3 3.7 0.5)
(-1.5 3.6 0.625)
(-1.6 3.7 0.625)
(-1.5 3.7 0.75)
(-1.4 3.7 0.625)
(-1.5 3.8 0.625)
(-1.3 3.7 0.75)
(-1.3 3.6 0.875)
(-1.3 3.8 0.875)
(-1.3 3.7 1)
(-1.3 3.7 1.25)
(-1.5 3.7 0)
(-1.3 3.7 0)
(-0.2 1.4 5)
(-0.2 1.4 4.5)
(-0.2 1.8 5)
(-0.2 1.8 4.5)
(-0.2 1.8 4)
(-0.2 1.8 3.5)
(-0.2 1.8 3)
(-0.2 1.4 4)
(-0.2 1.4 3.5)
(-0.2 1.4 3)
(-0.6 1.8 3)
(-0.6 1.8 5)
(-0.6 1.8 4.5)
(-0.6 1.4 5)
(-0.6 1.4 4.5)
(-0.6 1.4 3)
(-0.6 1.8 3.5)
(-0.6 1.4 3.5)
(-0.6 1.8 4)
(-0.6 1.4 4)
(1 2.2 3.5)
(1 2.2 4)
(1.4 2.2 4)
(1.4 2.2 3.5)
(1 2.2 3)
(1.4 2.2 3)
(1.8 2.2 3.5)
(1.8 2.2 3)
(1.8 2.2 4)
(1.4 2.2 4.5)
(1.8 2.2 4.5)
(1 2.2 4.5)
(1.8 2.2 5)
(1.4 2.2 5)
(1 2.2 5)
(2.2 3 5)
(2.2 3 4.5)
(2.2 3.4 5)
(2.2 3.4 4.5)
(2.2 3.8 5)
(2.2 3.8 4.5)
(2.2 4.2 5)
(2.2 4.2 4.5)
(2.2 4.6 5)
(2.2 4.6 4.5)
(2.2 5 5)
(2.2 5 4.5)
(2.2 5 4)
(2.2 4.6 4)
(2.2 5 3.5)
(2.2 4.6 3.5)
(2.2 5 3)
(2.2 4.6 3)
(2.2 3.4 2.5)
(2.2 3 2)
(2.2 3 2.5)
(2.2 3 3)
(2.2 3 3.5)
(2.2 3 4)
(2.2 3.4 4)
(2.2 3.8 4)
(2.2 4.2 4)
(2.2 4.2 3.5)
(2.2 4.2 3)
(2.2 3.8 3)
(2.2 3.4 3)
(2.2 3.4 3.5)
(2.2 3.8 3.5)
(1.4 1.8 4.5)
(1.8 1.8 4.5)
(1.8 1.8 5)
(1.4 1.8 5)
(1.4 1.8 4)
(1.8 1.8 4)
(1.4 1.8 3.5)
(1.8 1.8 3.5)
(1.4 1.8 3)
(1.8 1.8 3)
(1 1.8 3)
(1 1.8 3.5)
(0.6 1.8 3)
(0.6 1.8 3.5)
(1 1.8 4)
(0.6 1.8 4)
(1 1.8 4.5)
(1 1.8 5)
(0.6 1.8 5)
(0.6 1.8 4.5)
(0.6 1.4 3)
(1 1.4 3)
(1.4 1.4 3)
(1.8 1.4 3)
(0.6 1.4 3.5)
(1 1.4 3.5)
(1.4 1.4 3.5)
(1.8 1.4 3.5)
(0.6 1.4 4)
(1 1.4 4)
(1.4 1.4 4)
(1.8 1.4 4)
(0.6 1.4 4.5)
(1 1.4 4.5)
(1.4 1.4 4.5)
(1.8 1.4 4.5)
(0.6 1.4 5)
(1 1.4 5)
(1.4 1.4 5)
(1.8 1.4 5)
(1.4 2.6 4)
(1.4 2.6 3.5)
(1.4 2.6 3)
(1.4 3 3.5)
(1.4 3 4)
(1.4 2.6 4.5)
(1.4 3 4.5)
(1.4 2.6 5)
(1.4 3 5)
(1.8 2.6 3)
(1.8 3 3)
(1.8 3.4 3)
(1.8 3.8 3)
(1.8 4.2 3)
(1.8 4.6 3)
(1.8 5 3)
(1.8 2.6 3.5)
(1.8 3 3.5)
(1.8 3.4 3.5)
(1.8 3.8 3.5)
(1.8 4.2 3.5)
(1.8 4.6 3.5)
(1.8 5 3.5)
(1.8 2.6 4)
(1.8 3 4)
(1.8 3.4 4)
(1.8 3.8 4)
(1.8 4.2 4)
(1.8 4.6 4)
(1.8 5 4)
(1.8 2.6 4.5)
(1.8 3 4.5)
(1.8 3.4 4.5)
(1.8 3.8 4.5)
(1.8 4.2 4.5)
(1.8 4.6 4.5)
(1.8 5 4.5)
(1.8 2.6 5)
(1.8 3 5)
(1.8 3.4 5)
(1.8 3.8 5)
(1.8 4.2 5)
(1.8 4.6 5)
(1.8 5 5)
(1 2.6 3)
(1 2.6 3.5)
(1 3 3.5)
(1 2.6 4)
(1 3 4)
(1 2.6 4.5)
(1 3 4.5)
(1 2.6 5)
(1 3 5)
(2.2 3.4 1.5)
(2.2 3.4 1.25)
(2.2 3.4 1)
(2.2 3.6 1)
(2.2 3.8 1)
(2.2 3.8 1.5)
(2.2 4.2 1)
(2.2 4.2 1.5)
(2.2 4.6 1)
(2.2 4.6 1.5)
(2.2 5 1)
(2.2 5 1.5)
(2.2 4.6 0.5)
(2.2 5 0.5)
(2.2 4.6 0)
(2.2 5 0)
(2.2 4.2 0.5)
(2.2 4.2 0)
(2.2 3.8 0.5)
(2.2 3.8 0.25)
(2.2 3.8 0)
(2.2 3.8 0.75)
(2.2 4.6 2)
(2.2 5 2)
(2.2 4.2 2)
(1.8 3.6 0)
(1.8 3.6 0.25)
(1.8 3.6 0.5)
(1.8 3.6 0.75)
(1.8 3.6 1)
(1.8 3.4 1)
(1.8 3.6 1.25)
(1.8 3.4 1.5)
(1.8 3.4 1.25)
(1.8 3.6 1.5)
(1.6 3.4 1)
(1.8 3.6 1.75)
(1.8 3.4 1.75)
(2 3.4 1)
(1.2 3 2)
(1.2 3.2 2)
(0.6 3 1.5)
(1.4 3.4 1.25)
(0.6 3 1.75)
(1.2 3.4 1.25)
(1.1 3.5 1.375)
(0.5 3.1 1.625)
(0.5 3 1.5)
(0.6 3.1 1.5)
(0.6 3 1.625)
(1.2 3.5 1.25)
(1.1 3.4 1.25)
(0.5 3 1.75)
(0.6 3.1 1.75)
(1.2 3.4 1.375)
(1.1 3.5 1.25)
(0.6 3.1 1.625)
(0.5 3.1 1.5)
(1.1 3.4 1.375)
(1.2 3.5 1.375)
(0.5 3 1.625)
(0.5 3.1 1.75)
(1.3 3.5 1.375)
(1.4 3.4 1.375)
(1.3 3.4 1.25)
(1.4 3.5 1.25)
(1.4 3.5 1.375)
(1.3 3.4 1.375)
(1.3 3.5 1.25)
(1.2 3 2.5)
(1.4 3 2.25)
(1.4 3 2)
(1.6 3 2)
(1.2 3.2 2.5)
(1.4 3.2 2.25)
(1.4 3.2 2)
(1.6 3.2 2)
(1.2 3.2 2.25)
(1.2 3 2.25)
(-1 3 1.5)
(-1 3 1.625)
(-0.9 3 1.625)
(-0.9 3 1.5)
(-0.8 3 1.625)
(-0.8 3 1.5)
(-0.7 3 1.625)
(-0.7 3 1.5)
(-0.6 3 1.625)
(-0.6 3 1.5)
(-0.5 3 1.625)
(-0.5 3 1.5)
(-0.4 3 1.625)
(-0.4 3 1.5)
(-0.3 3 1.625)
(-0.3 3 1.5)
(-0.2 3 1.625)
(-0.2 3 1.5)
(-0.1 3 1.625)
(-0.1 3 1.5)
(0 3 1.625)
(0 3 1.5)
(-0.1 3 1.75)
(0 3 1.75)
(-0.2 3 1.75)
(-0.2 3 2)
(0 3 2)
(-0.3 3 1.75)
(-0.4 3 1.75)
(-0.4 3 2)
(-0.4 3 2.25)
(-0.2 3 2.25)
(-0.4 3 2.5)
(-0.2 3 2.5)
(-0.6 3 2.5)
(-0.6 3 3)
(-0.2 3 3)
(-0.6 2.6 3)
(-0.2 2.6 3)
(-1 2.6 3)
(-1 3 1.75)
(-0.9 3 1.75)
(-0.8 3 1.75)
(-0.7 3 1.75)
(-0.6 3 1.75)
(-0.5 3 1.75)
(-0.6 3 2)
(-0.6 3 2.25)
(-0.8 3 2.25)
(-0.8 3 2.5)
(-1 3 2.5)
(-1 3 3)
(-1 3 2)
(-0.8 3 2)
(-1 3 2.25)
(0.2 3.8 2)
(0.2 3.8 2.25)
(0.2 3.8 2.5)
(0.2 4.2 2.5)
(0.2 4.2 2)
(0.2 4 2)
(0 3.8 2)
(0 3.8 2.25)
(0 4 2)
(0 4.2 2)
(0.2 4.2 1.75)
(0 4.2 1.75)
(0.2 4.6 2)
(0.2 4.6 1.5)
(0.2 4.2 1.5)
(0.2 4.6 2.5)
(0.2 4.2 3)
(0.2 4.6 3)
(0.2 3.8 3)
(0.2 3.6 2.5)
(0.2 3.4 2.5)
(0.2 3.4 3)
(0 3.8 2.5)
(0 3.6 2.5)
(0 3.6 2.25)
(0 3.6 2)
(0 3.8 1.75)
(0 3.7 1.75)
(0 3.6 1.75)
(7.22801e-18 4 1.75)
(0 4.2 1.5)
(0 4 1.5)
(0.2 4.2 1.25)
(0 4.2 1.25)
(0.2 4.6 1)
(0.2 4.2 1)
(0.2 5 1.5)
(0.2 5 1)
(0.2 5 2)
(0.2 5 2.5)
(0.2 5 3)
(0.2 4.6 3.5)
(0.2 5 3.5)
(0.2 4.2 3.5)
(0.2 3.8 3.5)
(0.2 3.4 3.5)
(0.2 3 3)
(0.2 3 3.5)
(0.2 3.2 2.5)
(0.2 3 2.5)
(0 3.4 2.5)
(0 3.2 2.5)
(0 3.4 2.25)
(0 3.4 2)
(0 3.5 1.75)
(0 3.4 1.75)
(0 3.6 1.625)
(0 3.5 1.625)
(0 3.7 1.625)
(0 3.8 1.625)
(0 3.8 1.5)
(0 4 1.25)
(0 3.8 1.25)
(0 3.8 1.375)
(0 4.2 1)
(0 4 1)
(-0.2 4.6 1)
(-0.2 4.2 1)
(-0.2 5 1)
(-0.2 5 0.5)
(-0.2 4.6 0.5)
(-0.2 5 0)
(-0.2 4.6 0)
(-0.2 4.2 0)
(-0.2 4.2 0.25)
(-0.2 4.2 0.5)
(0 4.2 0)
(0 4.2 0.25)
(0 4 0)
(0 4 0.25)
(0 3.8 0)
(0 3.8 0.125)
(0 3.8 0.25)
(0 3.7 0)
(0 3.7 0.125)
(0 3.6 0)
(0 3.6 0.125)
(0 3.6 0.25)
(0 3.7 0.25)
(0 3.6 0.375)
(0 3.7 0.375)
(0 3.6 0.5)
(0 3.7 0.5)
(0 3.6 0.625)
(0 3.7 0.625)
(0 3.6 0.75)
(0 3.7 0.75)
(0 3.6 0.875)
(0 3.7 0.875)
(0 3.6 1)
(0 3.7 1)
(0 3.6 1.125)
(0 3.7 1.125)
(0 3.6 1.25)
(0 3.7 1.25)
(0 3.6 1.375)
(0 3.7 1.375)
(0 3.6 1.5)
(0 3.7 1.5)
(0 3.5 1.5)
(0 3.4 1.5)
(0 3.4 1.625)
(0 3.3 1.5)
(0 3.3 1.625)
(0 3.2 1.5)
(0 3.2 1.625)
(0 3.1 1.5)
(0 3.1 1.625)
(0 3.1 1.75)
(0 3.2 2)
(0 3.2 1.75)
(0 3 2.25)
(-3.61401e-18 3.2 2.25)
(0 3 2.5)
(0.2 2.6 3)
(0.2 2.6 3.5)
(0.2 2.6 4)
(0.2 2.6 4.5)
(0.2 2.6 5)
(0.2 3 5)
(0.2 3 4.5)
(0.2 3.4 5)
(0.2 3.4 4.5)
(0.2 3.8 5)
(0.2 3.8 4.5)
(0.2 4.2 5)
(0.2 4.2 4.5)
(0.2 4.6 5)
(0.2 4.6 4.5)
(0.2 5 5)
(0.2 5 4.5)
(0.2 5 4)
(0.2 4.6 4)
(0.2 4.2 4)
(0.2 3.8 4)
(0.2 3.4 4)
(0.2 3 4)
(0 3.3 1.75)
(0 3.8 1.125)
(0 3.8 1)
(0 4 0.75)
(0 3.8 0.75)
(0 3.8 0.875)
(0 4.2 0.75)
(-0.2 4.2 0.75)
(0 4.2 0.5)
(0 4 0.5)
(0 3.8 0.375)
(0 3.8 0.5)
(0 3.8 0.625)
(-0.2 2.6 2.5)
(-0.2 2.8 2.5)
(-0.2 2.8 2.25)
(-0.2 2.8 2)
(0 2.8 2)
(0 2.8 1.75)
(0 2.9 1.75)
(0 2.9 1.625)
(0 2.9 1.5)
(0 2.8 1.625)
(0 2.8 1.5)
(-1 2.6 2.5)
(-1 2.8 2.5)
(-1 2.8 2.25)
(-1 2.8 2)
(-0.4 2.6 2.5)
(-0.6 2.6 2.5)
(-0.8 2.8 2.5)
(-0.8 2.6 2.5)
(-0.6 2.8 2.5)
(-0.4 2.8 2.5)
(-1 2.8 1.75)
(-1 2.9 1.5)
(-1 2.8 1.5)
(-1 2.8 1.625)
(-1 2.9 1.75)
(-1 2.9 1.625)
(-0.6 2.8 2)
(-0.6 2.8 1.5)
(-0.6 2.8 1.625)
(-0.6 2.8 1.75)
(-0.6 2.9 1.75)
(-0.6 2.9 1.5)
(-0.6 2.9 1.625)
(-0.8 2.8 1.75)
(-0.8 2.8 1.5)
(-0.8 2.8 2)
(-0.9 2.9 1.625)
(-0.7 2.9 1.625)
(-0.8 2.8 1.625)
(-0.9 2.8 1.75)
(-0.7 2.8 1.75)
(-0.8 2.9 1.75)
(-0.9 2.8 1.5)
(-0.7 2.8 1.5)
(-0.8 2.9 1.5)
(-0.9 2.8 1.625)
(-0.9 2.9 1.5)
(-0.7 2.9 1.5)
(-0.7 2.8 1.625)
(-0.8 2.9 1.625)
(-0.9 2.9 1.75)
(-0.7 2.9 1.75)
(-0.4 2.8 1.75)
(-0.2 2.8 1.5)
(-0.4 2.8 1.5)
(-0.2 2.8 1.75)
(-0.4 2.8 2)
(-0.5 2.9 1.625)
(-0.3 2.9 1.625)
(-0.1 2.9 1.625)
(-0.2 2.9 1.5)
(-0.4 2.8 1.625)
(-0.5 2.8 1.75)
(-0.3 2.8 1.75)
(-0.4 2.9 1.75)
(-0.1 2.8 1.75)
(-0.5 2.8 1.5)
(-0.3 2.8 1.5)
(-0.1 2.8 1.5)
(-0.2 2.8 1.625)
(-0.4 2.9 1.5)
(-0.2 2.9 1.75)
(-0.5 2.8 1.625)
(-0.1 2.8 1.625)
(-0.5 2.9 1.5)
(-0.3 2.9 1.5)
(-0.1 2.9 1.5)
(-0.3 2.8 1.625)
(-0.4 2.9 1.625)
(-0.5 2.9 1.75)
(-0.3 2.9 1.75)
(-0.2 2.9 1.625)
(-0.1 2.9 1.75)
(-0.8 2.8 2.25)
(-0.4 2.8 2.25)
(-0.6 2.8 2.25)
(0.2 2.6 2.5)
(0.2 2.8 2.5)
(0.2 2.8 2.25)
(0.2 3 2.25)
(0.2 3.2 2.25)
(0.2 2.8 2)
(0.2 3 2)
(0.2 3.2 2)
(0.2 3.4 2)
(0.2 3.4 2.25)
(0.2 3.6 2)
(0.2 3.6 2.25)
(0.2 3.8 1.75)
(0.2 4 1.75)
(0.2 4 1.5)
(1.4 5 1.5)
(1.4 4.6 1.5)
(1 5 1.5)
(1 4.6 1.5)
(0.6 5 1.5)
(0.6 4.6 1.5)
(0.4 4.2 1.5)
(0.6 4.2 1.5)
(0.4 4 1.5)
(0.4 4 1.75)
(0.3 3.8 1.75)
(0.4 3.8 1.75)
(0.4 3.8 2)
(0.4 3.6 2)
(0.4 3.4 2)
(0.8 3 2)
(1.4 4.2 1.5)
(1 4.2 1.5)
(1.2 4.2 1.5)
(0.8 4.2 1.5)
(0.6 4 1.5)
(0.8 4 1.5)
(0.6 4 1.75)
(0.5 3.8 1.75)
(0.6 3.8 1.75)
(0.6 3.8 2)
(0.6 3.6 2)
(0.6 3.4 2)
(0.8 3.2 2)
(1.4 4 1.5)
(1.4 3.8 1.5)
(1.2 4 1.5)
(1 4 1.5)
(0.8 4 1.75)
(1 4 1.75)
(0.7 3.8 1.75)
(0.8 3.8 1.75)
(0.8 3.8 2)
(0.8 3.6 2)
(0.8 3.4 2)
(1.2 3.4 1.75)
(1.4 3.4 1.75)
(1.4 3.8 1.75)
(1.4 3.6 1.75)
(1.2 3.8 1.5)
(1.2 3.8 1.625)
(1.2 3.8 1.75)
(1.2 4 1.75)
(1 3.8 1.75)
(1.1 3.8 1.75)
(0.9 3.8 1.75)
(1 3.8 2)
(1 3.6 2)
(1.2 3.6 2)
(1.2 3.5 1.75)
(1.2 3.6 1.75)
(1.2 3.7 1.75)
(1.2 3.8 2)
(0.2 4 0)
(0.2 4 0.25)
(0.2 4.2 0)
(0.2 4.2 0.25)
(0.2 4.6 0)
(0.2 4.6 0.5)
(0.2 4.2 0.5)
(0.2 5 0)
(0.2 5 0.5)
(0.2 4 1.25)
(0.2 3.8 1.5)
(0.2 3.8 1.375)
(0.2 3.8 1.25)
(0.2 3.8 1.625)
(0.2 3.7 1.75)
(0.2 3.7 1.625)
(0.2 3.6 1.75)
(0.2 3.4 1.75)
(0.2 3.5 1.75)
(0.2 3.2 1.75)
(0.2 3.3 1.75)
(0.2 3 1.75)
(0.2 3.1 1.75)
(0.2 2.8 1.75)
(0.2 2.9 1.75)
(0.2 2.8 1.5)
(0.2 2.9 1.5)
(0.2 3 1.5)
(0.2 3.1 1.5)
(0.2 3.2 1.5)
(0.2 3.3 1.5)
(0.2 3.4 1.5)
(0.2 3.5 1.5)
(0.2 3.6 1.375)
(0.2 3.6 1.5)
(0.2 3.6 1.25)
(0.2 3.6 1.125)
(0.2 3.6 1)
(0.1 3.6 1)
(0.2 4 0.5)
(0.2 4.2 0.75)
(0.2 4 0.75)
(0.2 4 1)
(0.2 3.8 1.125)
(0.2 3.8 1)
(0.2 3.7 1.25)
(0.2 3.7 1.125)
(0.2 3.7 1.375)
(0.2 3.7 1.5)
(0.2 3.6 1.625)
(0.2 3.5 1.625)
(0.2 3.4 1.625)
(0.2 3.3 1.625)
(0.2 3.2 1.625)
(0.2 3.1 1.625)
(0.2 3 1.625)
(0.2 2.9 1.625)
(0.2 2.8 1.625)
(0.2 3.7 1)
(0.1 3.7 1)
(0.1 3.8 1)
(0 2.6 2.5)
(0 2.8 2.5)
(0.1 3.8 1.5)
(0.1 3 1.75)
(0.1 2.9 1.75)
(0.1 2.9 1.625)
(0.1 2.9 1.5)
(0.1 3.7 1.125)
(0.1 3.7 1.375)
(0.1 3.1 1.625)
(0.1 3.3 1.625)
(0.1 3.5 1.625)
(0.1 3 1.5)
(0.1 3.2 1.75)
(0.1 3.6 1.75)
(0.1 3.6 1.5)
(0.1 3.8 1.25)
(0.1 3.6 1.25)
(0.1 3.2 1.5)
(0.1 3.4 1.75)
(0.1 3.4 1.5)
(0.1 3.1 1.5)
(0.1 3.3 1.5)
(0.1 3.6 1.125)
(0.1 3.7 1.25)
(0.1 3.8 1.125)
(0.1 3.6 1.375)
(0.1 3.5 1.5)
(0.1 3.8 1.375)
(0.1 3.7 1.5)
(0.1 3 1.625)
(0.1 3.2 1.625)
(0.1 3.1 1.75)
(0.1 3.3 1.75)
(0.1 3.4 1.625)
(0.1 3.6 1.625)
(0.1 3.5 1.75)
(0.1 2.8 1.5)
(0.1 2.8 1.75)
(0.1 2.8 1.625)
(0.1 3.7 1.625)
(-7.22801e-18 2.8 2.25)
(0.1 3.8 1.75)
(0.1 3.7 1.75)
(0.1 3.8 1.625)
(1.4 4.2 0)
(1.4 4.2 0.25)
(1.4 4.2 0.5)
(1.4 4.6 0)
(1.4 4.6 0.5)
(1.4 5 0)
(1.4 5 0.5)
(1.4 5 1)
(1.4 4.6 1)
(1.4 4.2 0.75)
(1.4 4.2 1)
(1.4 4.2 1.25)
(0.2 3.8 0)
(0.2 3.8 0.125)
(0.2 3.8 0.25)
(0.2 3.7 0)
(0.2 3.7 0.125)
(0.2 3.6 0)
(0.2 3.6 0.125)
(0.2 3.8 0.375)
(0.2 3.8 0.5)
(0.2 3.7 0.25)
(0.2 3.7 0.375)
(0.2 3.6 0.25)
(0.2 3.6 0.375)
(0.2 3.6 0.5)
(0.2 3.6 0.625)
(0.2 3.6 0.75)
(0.2 3.6 0.875)
(0.2 3.8 0.875)
(0.2 3.7 0.875)
(0.2 3.8 0.75)
(0.2 3.8 0.625)
(0.2 3.7 0.5)
(0.2 3.7 0.625)
(0.2 3.7 0.75)
(1.4 3.8 1)
(1.4 3.8 1.25)
(1.4 3.8 0.5)
(1.4 3.8 0.75)
(1.4 3.8 0)
(1.4 3.8 0.25)
(1.4 4 0)
(1.4 4 0.25)
(1.4 4 1.25)
(1.4 4 1)
(1.4 4 0.75)
(1.4 4 0.5)
(0.6 3.8 0)
(1 3.8 0)
(0.6 4.2 0)
(1 4.2 0)
(0.6 4.6 0)
(1 4.6 0)
(0.6 5 0)
(1 5 0)
(0.6 3.8 0.5)
(1 3.8 0.5)
(0.6 4.2 0.5)
(1 4.2 0.5)
(0.6 4.6 0.5)
(1 4.6 0.5)
(0.6 5 0.5)
(1 5 0.5)
(0.6 3.8 1)
(1 3.8 1)
(0.6 4.2 1)
(1 4.2 1)
(0.6 4.6 1)
(1 4.6 1)
(0.6 5 1)
(1 5 1)
(0.6 3.4 1.5)
(1 3.4 1.5)
(0.6 3.8 1.5)
(1 3.8 1.5)
(0.4 3.6 0.25)
(0.8 3.6 0.25)
(1.2 3.6 0.25)
(0.4 4 0.25)
(0.8 4 0.25)
(0.4 3.6 0.75)
(0.8 3.6 0.75)
(1.2 3.6 0.75)
(0.4 4 0.75)
(0.8 4 0.75)
(0.4 3.6 1.25)
(0.8 3.6 1.25)
(0.4 4 1.25)
(0.8 4 1.25)
(0.8 3.2 1.75)
(0.4 3.6 1.75)
(0.8 3.6 1.75)
(0.6 3.6 0)
(1 3.6 0)
(1.4 3.6 0)
(0.4 3.8 0)
(0.8 3.8 0)
(0.6 4 0)
(0.6 3.8 0.25)
(1.2 3.8 0)
(1 4 0)
(1 3.8 0.25)
(0.4 4.2 0)
(0.8 4.2 0)
(0.6 4.2 0.25)
(1 4.2 0.25)
(0.6 3.6 0.5)
(1 3.6 0.5)
(1.4 3.6 0.5)
(0.4 3.8 0.5)
(0.8 3.8 0.5)
(0.6 4 0.5)
(0.6 3.8 0.75)
(1.2 3.8 0.5)
(1 4 0.5)
(1 3.8 0.75)
(0.4 4.2 0.5)
(0.8 4.2 0.5)
(0.6 4.2 0.75)
(1 4.2 0.75)
(0.6 3.6 1)
(1 3.6 1)
(1.4 3.6 1)
(0.4 3.8 1)
(0.8 3.8 1)
(0.6 4 1)
(0.6 3.8 1.25)
(1.2 3.8 1)
(1 4 1)
(1 3.8 1.25)
(0.4 4.2 1)
(0.8 4.2 1)
(0.6 4.2 1.25)
(1 4.2 1.25)
(0.4 3.4 1.5)
(0.8 3.4 1.5)
(0.6 3.6 1.5)
(0.6 3.4 1.75)
(1 3.6 1.5)
(1 3.4 1.75)
(0.4 3.8 1.5)
(0.8 3.8 1.5)
(0.6 3.6 0.25)
(0.4 3.8 0.25)
(0.4 3.6 0.5)
(1 3.6 0.25)
(0.8 3.8 0.25)
(0.8 3.6 0.5)
(1.4 3.6 0.25)
(1.2 3.8 0.25)
(1.2 3.6 0.5)
(0.6 4 0.25)
(0.4 4.2 0.25)
(0.4 4 0.5)
(1 4 0.25)
(0.8 4.2 0.25)
(0.8 4 0.5)
(0.6 3.6 0.75)
(0.4 3.8 0.75)
(0.4 3.6 1)
(1 3.6 0.75)
(0.8 3.8 0.75)
(0.8 3.6 1)
(1.4 3.6 0.75)
(1.2 3.8 0.75)
(1.2 3.6 1)
(0.6 4 0.75)
(0.4 4.2 0.75)
(0.4 4 1)
(1 4 0.75)
(0.8 4.2 0.75)
(0.8 4 1)
(0.8 3.2 1.5)
(0.6 3.6 1.25)
(0.4 3.8 1.25)
(0.4 3.6 1.5)
(1 3.6 1.25)
(0.8 3.8 1.25)
(0.8 3.6 1.5)
(1.2 3.8 1.25)
(0.6 4 1.25)
(0.4 4.2 1.25)
(1 4 1.25)
(0.8 4.2 1.25)
(0.4 3.4 1.75)
(0.8 3.4 1.75)
(0.6 3.6 1.75)
(1 3.6 1.75)
(0.4 3.6 0)
(0.4 4 0)
(0.8 3.6 0)
(0.8 4 0)
(1.2 3.6 0)
(0.3 3.1 1.625)
(0.3 3.5 1.625)
(0.7 3.5 1.625)
(0.3 3.7 0.125)
(0.5 3.7 0.125)
(0.3 3.7 0.375)
(0.5 3.7 0.375)
(0.7 3.7 0.125)
(0.9 3.7 0.125)
(0.7 3.7 0.375)
(0.9 3.7 0.375)
(0.3 3.7 0.625)
(0.5 3.7 0.625)
(0.3 3.7 0.875)
(0.5 3.7 0.875)
(0.7 3.7 0.625)
(0.9 3.7 0.625)
(0.7 3.7 0.875)
(0.9 3.7 0.875)
(0.3 3.7 1.125)
(0.5 3.7 1.125)
(0.3 3.7 1.375)
(0.5 3.7 1.375)
(0.7 3.7 1.125)
(0.9 3.7 1.125)
(0.7 3.7 1.375)
(0.9 3.7 1.375)
(0.3 3.3 1.625)
(0.5 3.3 1.625)
(0.7 3.3 1.625)
(0.5 3.5 1.625)
(0.9 3.5 1.625)
(0.3 3.8 0)
(0.3 3.8 0.25)
(0.3 3.6 0)
(0.3 3.6 0.25)
(0.3 3.8 0.5)
(0.3 3.6 0.5)
(0.3 3.8 1.5)
(0.3 3.8 0.75)
(0.3 3.8 1)
(0.3 3.6 0.75)
(0.3 3 1.5)
(0.3 3 1.75)
(0.3 3.2 1.75)
(0.3 3.6 1.75)
(0.3 3.6 1.5)
(0.3 3.8 1.25)
(0.3 3.6 1.25)
(0.3 3.6 1)
(0.3 3.2 1.5)
(0.3 3.4 1.75)
(0.3 3.4 1.5)
(0.6 3.7 0)
(0.5 3.8 0)
(0.7 3.8 0)
(0.6 3.8 0.125)
(1 3.7 0)
(0.9 3.8 0)
(1 3.8 0.125)
(0.6 3.8 0.375)
(0.6 3.7 0.5)
(0.5 3.8 0.5)
(0.7 3.8 0.5)
(0.6 3.8 0.625)
(1 3.8 0.375)
(1 3.7 0.5)
(0.9 3.8 0.5)
(1 3.8 0.625)
(0.6 3.8 0.875)
(0.6 3.7 1)
(0.5 3.8 1)
(0.7 3.8 1)
(0.6 3.8 1.125)
(1 3.8 0.875)
(1 3.7 1)
(0.9 3.8 1)
(1 3.8 1.125)
(0.6 3.3 1.5)
(0.5 3.4 1.5)
(0.7 3.4 1.5)
(0.6 3.5 1.5)
(0.6 3.4 1.625)
(0.9 3.4 1.5)
(1 3.5 1.5)
(1 3.4 1.625)
(0.6 3.8 1.375)
(0.6 3.7 1.5)
(0.5 3.8 1.5)
(0.7 3.8 1.5)
(1 3.8 1.375)
(1 3.7 1.5)
(0.9 3.8 1.5)
(0.5 3.6 0.25)
(0.4 3.7 0.25)
(0.4 3.6 0.375)
(0.4 3.6 0.125)
(0.7 3.6 0.25)
(0.9 3.6 0.25)
(0.8 3.7 0.25)
(0.8 3.6 0.375)
(0.8 3.6 0.125)
(1.1 3.6 0.25)
(1.2 3.6 0.375)
(1.2 3.6 0.125)
(0.4 3.6 0.625)
(0.5 3.6 0.75)
(0.4 3.7 0.75)
(0.4 3.6 0.875)
(0.8 3.6 0.625)
(0.7 3.6 0.75)
(0.9 3.6 0.75)
(0.8 3.7 0.75)
(0.8 3.6 0.875)
(1.2 3.6 0.625)
(1.1 3.6 0.75)
(1.2 3.6 0.875)
(0.4 3.6 1.125)
(0.5 3.6 1.25)
(0.4 3.7 1.25)
(0.4 3.6 1.375)
(0.8 3.6 1.125)
(0.7 3.6 1.25)
(0.9 3.6 1.25)
(0.8 3.7 1.25)
(0.8 3.6 1.375)
(1.2 3.6 1.125)
(0.4 3.3 1.75)
(0.8 3.2 1.625)
(0.7 3.2 1.75)
(0.8 3.3 1.75)
(0.4 3.6 1.625)
(0.4 3.5 1.75)
(0.5 3.6 1.75)
(0.8 3.6 1.625)
(0.8 3.5 1.75)
(0.7 3.6 1.75)
(0.9 3.6 1.75)
(0.6 3.6 0.125)
(0.5 3.6 0)
(0.7 3.6 0)
(1 3.6 0.125)
(0.9 3.6 0)
(1.1 3.6 0)
(0.4 3.8 0.125)
(0.4 3.7 0)
(0.8 3.8 0.125)
(0.8 3.7 0)
(0.6 3.7 0.25)
(0.5 3.8 0.25)
(0.7 3.8 0.25)
(1 3.7 0.25)
(0.9 3.8 0.25)
(0.6 3.6 0.375)
(0.5 3.6 0.5)
(0.7 3.6 0.5)
(0.6 3.6 0.625)
(1 3.6 0.375)
(0.9 3.6 0.5)
(1.1 3.6 0.5)
(1 3.6 0.625)
(0.4 3.8 0.375)
(0.4 3.7 0.5)
(0.4 3.8 0.625)
(0.8 3.8 0.375)
(0.8 3.7 0.5)
(0.8 3.8 0.625)
(0.6 3.7 0.75)
(0.5 3.8 0.75)
(0.7 3.8 0.75)
(1 3.7 0.75)
(0.9 3.8 0.75)
(0.6 3.6 0.875)
(0.5 3.6 1)
(0.7 3.6 1)
(0.6 3.6 1.125)
(1 3.6 0.875)
(0.9 3.6 1)
(1.1 3.6 1)
(1 3.6 1.125)
(0.4 3.8 0.875)
(0.4 3.7 1)
(0.4 3.8 1.125)
(0.8 3.8 0.875)
(0.8 3.7 1)
(0.8 3.8 1.125)
(0.6 3.7 1.25)
(0.5 3.8 1.25)
(0.7 3.8 1.25)
(1 3.7 1.25)
(0.9 3.8 1.25)
(0.7 3.2 1.5)
(0.4 3.3 1.5)
(0.4 3.5 1.5)
(0.4 3.4 1.625)
(0.8 3.3 1.5)
(0.8 3.5 1.5)
(0.8 3.4 1.625)
(0.6 3.6 1.375)
(0.5 3.6 1.5)
(0.7 3.6 1.5)
(0.6 3.6 1.625)
(0.6 3.3 1.75)
(0.5 3.4 1.75)
(0.7 3.4 1.75)
(0.6 3.5 1.75)
(1 3.6 1.375)
(0.9 3.6 1.5)
(1 3.6 1.625)
(0.9 3.4 1.75)
(1 3.5 1.75)
(0.4 3.8 1.375)
(0.4 3.7 1.5)
(0.8 3.8 1.375)
(0.8 3.7 1.5)
(0.3 3.6 0.125)
(0.7 3.6 0.125)
(1.1 3.6 0.125)
(0.3 3.8 0.125)
(0.7 3.8 0.125)
(0.3 3.6 0.625)
(0.7 3.6 0.625)
(1.1 3.6 0.625)
(0.3 3.8 0.625)
(0.7 3.8 0.625)
(0.3 3.6 1.125)
(0.7 3.6 1.125)
(1.1 3.6 1.125)
(0.3 3.8 1.125)
(0.7 3.8 1.125)
(0.3 3.1 1.5)
(0.3 3 1.625)
(0.3 3.2 1.625)
(0.3 3.1 1.75)
(0.7 3.2 1.625)
(0.3 3.5 1.5)
(0.3 3.4 1.625)
(0.4 3.5 1.625)
(0.3 3.6 1.625)
(0.3 3.5 1.75)
(0.7 3.5 1.5)
(0.7 3.4 1.625)
(0.6 3.5 1.625)
(0.8 3.5 1.625)
(0.7 3.6 1.625)
(0.7 3.5 1.75)
(1 3.5 1.625)
(0.5 3.6 0.125)
(0.4 3.7 0.125)
(0.3 3.7 0.25)
(0.5 3.7 0.25)
(0.6 3.7 0.125)
(0.5 3.8 0.125)
(0.3 3.6 0.375)
(0.5 3.6 0.375)
(0.4 3.7 0.375)
(0.3 3.8 0.375)
(0.3 3.7 0.5)
(0.6 3.7 0.375)
(0.5 3.8 0.375)
(0.5 3.7 0.5)
(0.9 3.6 0.125)
(0.8 3.7 0.125)
(0.7 3.7 0.25)
(0.9 3.7 0.25)
(1 3.7 0.125)
(0.9 3.8 0.125)
(0.7 3.6 0.375)
(0.9 3.6 0.375)
(0.8 3.7 0.375)
(0.7 3.8 0.375)
(0.7 3.7 0.5)
(1 3.7 0.375)
(0.9 3.8 0.375)
(0.9 3.7 0.5)
(1.1 3.6 0.375)
(0.5 3.6 0.625)
(0.4 3.7 0.625)
(0.3 3.7 0.75)
(0.5 3.7 0.75)
(0.6 3.7 0.625)
(0.5 3.8 0.625)
(0.3 3.6 0.875)
(0.5 3.6 0.875)
(0.4 3.7 0.875)
(0.3 3.8 0.875)
(0.3 3.7 1)
(0.6 3.7 0.875)
(0.5 3.8 0.875)
(0.5 3.7 1)
(0.9 3.6 0.625)
(0.8 3.7 0.625)
(0.7 3.7 0.75)
(0.9 3.7 0.75)
(1 3.7 0.625)
(0.9 3.8 0.625)
(0.7 3.6 0.875)
(0.9 3.6 0.875)
(0.8 3.7 0.875)
(0.7 3.8 0.875)
(0.7 3.7 1)
(1 3.7 0.875)
(0.9 3.8 0.875)
(0.9 3.7 1)
(1.1 3.6 0.875)
(0.3 3.3 1.5)
(0.5 3.3 1.5)
(0.7 3.3 1.5)
(0.5 3.6 1.125)
(0.4 3.7 1.125)
(0.3 3.7 1.25)
(0.5 3.7 1.25)
(0.6 3.7 1.125)
(0.5 3.8 1.125)
(0.3 3.6 1.375)
(0.5 3.6 1.375)
(0.5 3.5 1.5)
(0.4 3.7 1.375)
(0.3 3.8 1.375)
(0.3 3.7 1.5)
(0.6 3.7 1.375)
(0.5 3.8 1.375)
(0.5 3.7 1.5)
(0.9 3.6 1.125)
(0.8 3.7 1.125)
(0.7 3.7 1.25)
(0.9 3.7 1.25)
(1 3.7 1.125)
(0.9 3.8 1.125)
(0.7 3.6 1.375)
(0.9 3.6 1.375)
(0.9 3.5 1.5)
(0.8 3.7 1.375)
(0.7 3.8 1.375)
(0.7 3.7 1.5)
(1 3.7 1.375)
(0.9 3.8 1.375)
(0.9 3.7 1.5)
(0.4 3.3 1.625)
(0.3 3.3 1.75)
(0.5 3.3 1.75)
(0.6 3.3 1.625)
(0.5 3.4 1.625)
(0.8 3.3 1.625)
(0.7 3.3 1.75)
(0.9 3.4 1.625)
(0.5 3.6 1.625)
(0.5 3.5 1.75)
(0.9 3.6 1.625)
(0.9 3.5 1.75)
(0.3 3.7 0)
(0.5 3.7 0)
(0.7 3.7 0)
(0.9 3.7 0)
(1.2 4 0.25)
(1.2 4 0.75)
(1.2 4 1.25)
(1.1 3.5 1.625)
(1.1 3.7 0.125)
(1.1 3.7 0.375)
(1.1 3.7 0.625)
(1.1 3.7 0.875)
(1.1 3.7 1.125)
(1.1 3.7 1.375)
(1.1 3.8 0)
(1.2 4.2 0)
(1.1 3.8 0.5)
(1.2 4.2 0.5)
(1.1 3.8 1)
(1.2 4.2 1)
(1.1 3.8 1.5)
(1.2 3.7 0.25)
(1.2 3.7 0.75)
(1.2 3.7 1.25)
(1.2 3.8 0.125)
(1.2 3.7 0)
(1.1 3.8 0.25)
(1.2 3.8 0.375)
(1.2 3.7 0.5)
(1.2 3.8 0.625)
(1.1 3.8 0.75)
(1.2 3.8 0.875)
(1.2 3.7 1)
(1.2 3.8 1.125)
(1.1 3.8 1.25)
(1.2 3.4 1.625)
(1.1 3.4 1.75)
(1.2 3.8 1.375)
(1.2 3.7 1.5)
(1.2 3.6 1.625)
(1.1 3.6 1.75)
(1.2 4.2 0.25)
(1.2 4 0.5)
(1.1 3.8 0.125)
(1.1 3.8 0.375)
(1.2 4.2 0.75)
(1.2 4 1)
(1.1 3.8 0.625)
(1.1 3.8 0.875)
(1.2 4.2 1.25)
(1.1 3.8 1.125)
(1.1 3.8 1.375)
(1.1 3.4 1.625)
(1.2 3.5 1.625)
(1.1 3.6 1.625)
(1.1 3.5 1.75)
(1.2 3.7 0.125)
(1.1 3.7 0.25)
(1.2 3.7 0.375)
(1.1 3.7 0.5)
(1.2 3.7 0.625)
(1.1 3.7 0.75)
(1.2 3.7 0.875)
(1.1 3.7 1)
(1.2 3.7 1.125)
(1.1 3.7 1.25)
(1.2 3.7 1.375)
(1.1 3.7 1.5)
(1.2 4 0)
(1.1 3.7 0)
(0.3 3.7 1.625)
(0.5 3.7 1.625)
(0.7 3.7 1.625)
(0.9 3.7 1.625)
(1.1 3.7 1.625)
(0.6 3.8 1.625)
(1 3.8 1.625)
(1.3 3.6 0.25)
(1.3 3.6 0.75)
(0.4 3.7 1.75)
(0.8 3.7 1.75)
(1.4 3.6 0.125)
(1.3 3.6 0)
(1.4 3.6 0.375)
(1.3 3.6 0.5)
(1.4 3.6 0.625)
(1.4 3.6 0.875)
(1.3 3.6 1)
(1.4 3.6 1.125)
(0.4 3.8 1.625)
(0.8 3.8 1.625)
(0.6 3.7 1.75)
(1 3.7 1.75)
(0.3 3.8 1.625)
(0.5 3.8 1.625)
(0.7 3.8 1.625)
(0.9 3.8 1.625)
(1.1 3.8 1.625)
(1.3 3.6 0.125)
(1.3 3.6 0.375)
(1.3 3.6 0.625)
(1.3 3.6 0.875)
(1.3 3.6 1.125)
(0.4 3.7 1.625)
(0.3 3.7 1.75)
(0.5 3.7 1.75)
(0.6 3.7 1.625)
(0.8 3.7 1.625)
(0.7 3.7 1.75)
(0.9 3.7 1.75)
(1 3.7 1.625)
(1.2 3.7 1.625)
(1.1 3.7 1.75)
(0.1 3.8 0.75)
(0.1 3.7 0.75)
(0.1 3.6 0.75)
(0.1 3.7 0.125)
(0.1 3.7 0.375)
(0.1 3.7 0.625)
(0.1 3.8 0)
(0.1 3.8 0.25)
(0.1 3.6 0)
(0.1 3.6 0.25)
(0.1 3.8 0.5)
(0.1 3.6 0.5)
(0.1 3.6 0.125)
(0.1 3.7 0.25)
(0.1 3.8 0.125)
(0.1 3.6 0.375)
(0.1 3.8 0.375)
(0.1 3.7 0.5)
(0.1 3.6 0.625)
(0.1 3.8 0.625)
(0.1 3.7 0)
(0.1 3.7 0.875)
(0.1 3.6 0.875)
(0.1 3.8 0.875)
(0.4 4.2 1.75)
(0.4 4.2 2)
(0.4 4 2)
(0.4 3.8 2.25)
(0.4 3.8 2.5)
(0.4 3.6 2.5)
(0.4 3.4 2.5)
(0.4 3.2 2.5)
(0.4 3 2.5)
(0.8 4.2 1.75)
(0.6 4.2 1.75)
(0.6 4.2 2)
(0.6 4 2)
(0.6 3.8 2.25)
(0.6 3.8 2.5)
(0.6 3.6 2.5)
(0.6 3.4 2.5)
(0.6 3.2 2.5)
(0.6 3 2.5)
(1.4 4.2 2)
(1.4 4.2 1.75)
(1.2 4.2 1.75)
(1 4.2 1.75)
(1 4.2 2)
(0.8 4.2 2)
(0.8 4 2)
(0.8 3.8 2.25)
(0.8 3.8 2.5)
(0.8 3.6 2.5)
(0.8 3.4 2.5)
(0.8 3.2 2.5)
(0.8 3 2.5)
(1.4 3.8 2)
(1.4 4 2)
(1.2 4 2)
(1.2 4.2 2)
(1 4 2)
(1 3.8 2.25)
(1 3.8 2.5)
(1 3.6 2.5)
(1.4 3.6 2)
(1.4 3.6 2.25)
(1.4 3.8 2.25)
(1.2 3.8 2.25)
(1.2 3.8 2.5)
(1.2 3.6 2.5)
(1.4 5 2)
(1.4 4.6 2)
(1 5 2)
(1 4.6 2)
(0.6 5 2)
(0.6 4.6 2)
(0.6 4.2 2.5)
(1 4.2 2.5)
(0.6 4.6 2.5)
(1 4.6 2.5)
(0.6 5 2.5)
(1 5 2.5)
(0.6 3.8 3)
(1 3.8 3)
(0.6 4.2 3)
(1 4.2 3)
(0.6 4.6 3)
(1 4.6 3)
(0.6 5 3)
(1 5 3)
(0.6 3.8 3.5)
(1 3.8 3.5)
(0.6 4.2 3.5)
(1 4.2 3.5)
(0.6 4.6 3.5)
(1 4.6 3.5)
(0.6 5 3.5)
(1 5 3.5)
(0.6 3.8 4)
(1 3.8 4)
(0.6 4.2 4)
(1 4.2 4)
(0.6 4.6 4)
(1 4.6 4)
(0.6 5 4)
(1 5 4)
(0.6 3.8 4.5)
(1 3.8 4.5)
(0.6 4.2 4.5)
(1 4.2 4.5)
(0.6 4.6 4.5)
(1 4.6 4.5)
(0.6 5 4.5)
(1 5 4.5)
(0.6 3.8 5)
(1 3.8 5)
(0.6 4.2 5)
(1 4.2 5)
(0.6 4.6 5)
(1 4.6 5)
(0.6 5 5)
(1 5 5)
(0.4 3.2 2.25)
(0.8 3.2 2.25)
(0.4 3.6 2.25)
(0.8 3.6 2.25)
(1.2 3.6 2.25)
(0.6 3 2.25)
(0.6 3.4 2.25)
(1.4 4 1.75)
(0.4 3 2.25)
(0.8 3 2.25)
(0.6 3.2 2.25)
(0.4 3.4 2.25)
(0.8 3.4 2.25)
(0.6 3.6 2.25)
(1 3.6 2.25)
(-0.2 3.4 3)
(-0.2 5 2)
(-0.2 4.6 2)
(-0.6 5 2)
(-0.6 4.6 2)
(-1 5 2)
(-1 4.6 2)
(-1 4.2 2)
(-0.8 4.2 2)
(-0.6 4.2 2)
(-1 4.2 2.5)
(-0.6 4.2 2.5)
(-1 3.8 2.5)
(-0.8 3.8 2.5)
(-0.6 3.8 2.5)
(-1 3.8 3)
(-0.6 3.8 3)
(-1 3.4 3)
(-0.6 3.4 3)
(-0.2 3.8 3)
(-0.2 3.8 2.5)
(-0.2 4.2 2.5)
(-0.2 4.2 2)
(-0.4 4.2 2)
(-0.4 3.8 2.5)
(-1 3.8 4.5)
(-1 4.2 4.5)
(-1 4.2 5)
(-1 3.8 5)
(-1 3.8 4)
(-1 4.2 4)
(-1 3.4 4.5)
(-1 3.4 4)
(-1 3.4 5)
(-1 3 5)
(-1 3 4.5)
(-1 2.6 5)
(-1 2.6 4.5)
(-1 2.6 4)
(-1 3 4)
(-1 2.6 3.5)
(-1 3 3.5)
(-1 3.4 3.5)
(-1 3.8 3.5)
(-1 4.2 3)
(-1 4.2 3.5)
(-1 4.6 2.5)
(-1 4.6 3)
(-1 5 2.5)
(-1 5 3)
(-1 5 3.5)
(-1 4.6 3.5)
(-1 5 4)
(-1 4.6 4)
(-1 5 4.5)
(-1 4.6 4.5)
(-1 5 5)
(-1 4.6 5)
(-1 4 0.25)
(-1 4 0)
(-1 4.2 0.25)
(-1 4.2 0)
(-1 4.2 0.5)
(-1 4.6 0.5)
(-1 4.6 0)
(-1 5 0.5)
(-1 5 0)
(-1 4.6 1)
(-1 5 1)
(-1 4.6 1.5)
(-1 5 1.5)
(-1 4.2 1.5)
(-1 4.2 1.75)
(-1 4 1.75)
(-1 4 2)
(-1 3.8 2)
(-1 3.8 2.25)
(-1 3.6 2.25)
(-1 3.6 2.5)
(-1 3.4 2.5)
(-1 3.2 2.5)
(-1 3.2 2.25)
(-1.1 3.2 1.5)
(-1 3.2 1.5)
(-1 3.3 1.5)
(-1 3.4 1.5)
(-1 3.5 1.5)
(-1 3.6 1.5)
(-1 3.6 1.375)
(-1 3.6 1.25)
(-1 3.6 1.125)
(-1 3.6 1)
(-1.1 3.6 1)
(-1 4 0.5)
(-1 4 0.75)
(-1 4.2 0.75)
(-1 4.2 1)
(-1 4.2 1.25)
(-1 4 1.25)
(-1 4 1.5)
(-1 3.8 1.5)
(-1 3.8 1.625)
(-1 3.8 1.75)
(-1 3.7 1.75)
(-1 3.6 1.75)
(-1 3.6 2)
(-1 3.4 2)
(-1 3.4 2.25)
(-1 3.2 2)
(-1.1 3.2 1.625)
(-1 3.2 1.625)
(-1 3.3 1.625)
(-1 3.4 1.625)
(-1 3.5 1.625)
(-1 3.6 1.625)
(-1 3.7 1.625)
(-1 3.7 1.5)
(-1 3.7 1.375)
(-1 3.7 1.25)
(-1 3.7 1.125)
(-1 3.7 1)
(-1.1 3.7 1)
(-1 4 1)
(-1 3.8 1)
(-1 3.8 1.125)
(-1 3.8 1.25)
(-1 3.8 1.375)
(-1 3.5 1.75)
(-1 3.4 1.75)
(-1 3.3 1.75)
(-1 3.2 1.75)
(-1.1 3.2 1.75)
(-1.1 3.8 1)
(-0.8 3.6 2.5)
(-0.8 3.4 2.5)
(-0.8 3.2 2.5)
(-0.2 3.2 2.5)
(-0.2 3.4 2.5)
(-0.2 3.6 2.5)
(-0.4 3.6 2.5)
(-0.6 3.6 2.5)
(-0.6 3.4 2.5)
(-0.6 3.2 2.5)
(-0.4 3.2 2.5)
(-0.4 3.4 2.5)
(-1 3.1 1.5)
(-1 3.1 1.75)
(-1 3.1 1.625)
(-0.2 3.8 2)
(-0.8 3.8 2)
(-0.6 3.8 2)
(-0.4 3.8 2)
(-0.6 4.6 1.5)
(-0.6 5 1.5)
(-0.6 4.6 1)
(-0.6 5 1)
(-0.6 4.6 0.5)
(-0.6 5 0.5)
(-0.6 4.6 0)
(-0.6 5 0)
(-0.6 4.2 0.5)
(-0.6 4.2 0.25)
(-0.6 4.2 0)
(-0.6 4 0.25)
(-0.6 4 0)
(-0.6 3.8 0.25)
(-0.6 3.8 0.125)
(-0.6 3.8 0)
(-0.6 3.7 0.125)
(-0.6 3.7 0)
(-0.6 3.6 0.125)
(-0.6 3.6 0)
(-0.6 4.2 1.5)
(-0.6 4.2 1.25)
(-0.6 4.2 1)
(-0.6 4.2 0.75)
(-0.6 4 0.75)
(-0.6 4 0.5)
(-0.6 3.8 0.5)
(-0.6 3.8 0.375)
(-0.6 3.7 0.375)
(-0.6 3.7 0.25)
(-0.6 3.6 0.25)
(-0.6 3.2 2)
(-0.6 3.4 2)
(-0.6 3.6 2)
(-0.6 3.8 1.75)
(-0.6 3.8 1.5)
(-0.6 4 1.5)
(-0.6 4 1.25)
(-0.6 4 1)
(-0.6 3.8 1)
(-0.6 3.8 0.875)
(-0.6 3.8 0.75)
(-0.6 3.8 0.625)
(-0.6 3.7 0.625)
(-0.6 3.7 0.5)
(-0.6 3.6 0.5)
(-0.6 3.6 0.375)
(-0.6 3.1 1.75)
(-0.6 3.2 1.75)
(-0.6 3.3 1.75)
(-0.6 3.4 1.75)
(-0.6 3.5 1.75)
(-0.6 3.6 1.75)
(-0.6 3.6 1.625)
(-0.6 3.6 1.5)
(-0.6 3.7 1.5)
(-0.6 3.7 1.375)
(-0.6 3.8 1.375)
(-0.6 3.8 1.25)
(-0.6 3.8 1.125)
(-0.6 3.7 1.125)
(-0.6 3.7 1)
(-0.6 3.7 0.875)
(-0.6 3.7 0.75)
(-0.6 3.6 0.75)
(-0.6 3.6 0.625)
(-0.6 3.1 1.625)
(-0.6 3.2 1.625)
(-0.6 3.3 1.625)
(-0.6 3.4 1.625)
(-0.6 3.5 1.625)
(-0.6 3.5 1.5)
(-0.6 3.6 1.375)
(-0.6 3.6 1.25)
(-0.6 3.7 1.25)
(-0.6 3.6 1.125)
(-0.6 3.6 1)
(-0.6 3.6 0.875)
(-0.6 3.1 1.5)
(-0.6 3.2 1.5)
(-0.6 3.3 1.5)
(-0.6 3.4 1.5)
(-1 3.8 0)
(-1 3.8 0.5)
(-0.8 3.6 0.25)
(-0.8 4 0.25)
(-0.8 3.6 0.75)
(-0.8 4 0.75)
(-0.8 3.6 1.25)
(-0.8 4 1.25)
(-0.8 3.2 1.75)
(-0.8 3.6 1.75)
(-1 3.6 0)
(-0.8 3.8 0)
(-1 3.8 0.25)
(-0.8 4.2 0)
(-1 3.6 0.5)
(-0.8 3.8 0.5)
(-1 3.8 0.75)
(-0.8 4.2 0.5)
(-0.8 3.8 1)
(-0.8 4.2 1)
(-0.8 3.4 1.5)
(-0.8 3.8 1.5)
(-0.8 4.2 1.5)
(-0.8 3.4 2)
(-1 3.6 0.25)
(-0.8 3.8 0.25)
(-0.8 3.6 0.5)
(-0.8 4.2 0.25)
(-0.8 4 0.5)
(-1 3.6 0.75)
(-0.8 3.8 0.75)
(-0.8 3.6 1)
(-0.8 4.2 0.75)
(-0.8 4 1)