/*--------------------------------*- C++ -*----------------------------------*\
  =========                 |
  \\      /  F ield         | OpenFOAM: The Open Source CFD Toolbox
   \\    /   O peration     | Website:  https://openfoam.org
    \\  /    A nd           | Version:  9
     \\/     M anipulation  |
\*---------------------------------------------------------------------------*/
FoamFile
{
    format      ascii;
    class       polyBoundaryMesh;
    location    "0.001/polyMesh";
    object      boundary;
}
// * * * * * * * * * * * * * * * * * * * * * * * * * * * * * * * * * * * * * //

10
(
    ground
    {
        type            patch;
        nFaces          460;
        startFace       23914;
    }
    outlet
    {
        type            patch;
        nFaces          0;
        startFace       24374;
    }
    wall
    {
        type            patch;
        nFaces          0;
        startFace       24374;
    }
    wall2
    {
        type            patch;
        nFaces          0;
        startFace       24374;
    }
    wall3
    {
        type            patch;
        nFaces          0;
        startFace       24374;
    }
    internalPatch
    {
        type            internal;
        inGroups        List<word> 1(internal);
        nFaces          0;
        startFace       24374;
    }
    procBoundary4to1
    {
        type            processor;
        inGroups        List<word> 1(processor);
        nFaces          32;
        startFace       24374;
        matchTolerance  0.0001;
        myProcNo        4;
        neighbProcNo    1;
    }
    procBoundary4to2
    {
        type            processor;
        inGroups        List<word> 1(processor);
        nFaces          432;
        startFace       24406;
        matchTolerance  0.0001;
        myProcNo        4;
        neighbProcNo    2;
    }
    procBoundary4to3
    {
        type            processor;
        inGroups        List<word> 1(processor);
        nFaces          1056;
        startFace       24838;
        matchTolerance  0.0001;
        myProcNo        4;
        neighbProcNo    3;
    }
    procBoundary4to5
    {
        type            processor;
        inGroups        List<word> 1(processor);
        nFaces          568;
        startFace       25894;
        matchTolerance  0.0001;
        myProcNo        4;
        neighbProcNo    5;
    }
)

// ************************************************************************* //
