/*--------------------------------*- C++ -*----------------------------------*\
  =========                 |
  \\      /  F ield         | OpenFOAM: The Open Source CFD Toolbox
   \\    /   O peration     | Website:  https://openfoam.org
    \\  /    A nd           | Version:  9
     \\/     M anipulation  |
\*---------------------------------------------------------------------------*/
FoamFile
{
    format      ascii;
    class       polyBoundaryMesh;
    location    "constant/polyMesh";
    object      boundary;
}
// * * * * * * * * * * * * * * * * * * * * * * * * * * * * * * * * * * * * * //

10
(
    ground
    {
        type            patch;
        nFaces          235;
        startFace       9062;
    }
    outlet
    {
        type            patch;
        nFaces          18;
        startFace       9297;
    }
    wall
    {
        type            patch;
        nFaces          736;
        startFace       9315;
    }
    wall2
    {
        type            patch;
        nFaces          0;
        startFace       10051;
    }
    wall3
    {
        type            patch;
        nFaces          0;
        startFace       10051;
    }
    internalPatch
    {
        type            internal;
        inGroups        List<word> 1(internal);
        nFaces          0;
        startFace       10051;
    }
    procBoundary1to0
    {
        type            processor;
        inGroups        List<word> 1(processor);
        nFaces          95;
        startFace       10051;
        matchTolerance  0.0001;
        myProcNo        1;
        neighbProcNo    0;
    }
    procBoundary1to2
    {
        type            processor;
        inGroups        List<word> 1(processor);
        nFaces          249;
        startFace       10146;
        matchTolerance  0.0001;
        myProcNo        1;
        neighbProcNo    2;
    }
    procBoundary1to3
    {
        type            processor;
        inGroups        List<word> 1(processor);
        nFaces          78;
        startFace       10395;
        matchTolerance  0.0001;
        myProcNo        1;
        neighbProcNo    3;
    }
    procBoundary1to5
    {
        type            processor;
        inGroups        List<word> 1(processor);
        nFaces          46;
        startFace       10473;
        matchTolerance  0.0001;
        myProcNo        1;
        neighbProcNo    5;
    }
)

// ************************************************************************* //
