/*--------------------------------*- C++ -*----------------------------------*\
  =========                 |
  \\      /  F ield         | OpenFOAM: The Open Source CFD Toolbox
   \\    /   O peration     | Website:  https://openfoam.org
    \\  /    A nd           | Version:  9
     \\/     M anipulation  |
\*---------------------------------------------------------------------------*/
FoamFile
{
    format      ascii;
    class       polyBoundaryMesh;
    location    "0.0003/polyMesh";
    object      boundary;
}
// * * * * * * * * * * * * * * * * * * * * * * * * * * * * * * * * * * * * * //

11
(
    ground
    {
        type            patch;
        nFaces          202;
        startFace       6926;
    }
    outlet
    {
        type            patch;
        nFaces          0;
        startFace       7128;
    }
    wall
    {
        type            patch;
        nFaces          0;
        startFace       7128;
    }
    wall2
    {
        type            patch;
        nFaces          531;
        startFace       7128;
    }
    wall3
    {
        type            patch;
        nFaces          0;
        startFace       7659;
    }
    internalPatch
    {
        type            internal;
        inGroups        List<word> 1(internal);
        nFaces          0;
        startFace       7659;
    }
    procBoundary7to0
    {
        type            processor;
        inGroups        List<word> 1(processor);
        nFaces          39;
        startFace       7659;
        matchTolerance  0.0001;
        myProcNo        7;
        neighbProcNo    0;
    }
    procBoundary7to1
    {
        type            processor;
        inGroups        List<word> 1(processor);
        nFaces          79;
        startFace       7698;
        matchTolerance  0.0001;
        myProcNo        7;
        neighbProcNo    1;
    }
    procBoundary7to4
    {
        type            processor;
        inGroups        List<word> 1(processor);
        nFaces          48;
        startFace       7777;
        matchTolerance  0.0001;
        myProcNo        7;
        neighbProcNo    4;
    }
    procBoundary7to5
    {
        type            processor;
        inGroups        List<word> 1(processor);
        nFaces          64;
        startFace       7825;
        matchTolerance  0.0001;
        myProcNo        7;
        neighbProcNo    5;
    }
    procBoundary7to6
    {
        type            processor;
        inGroups        List<word> 1(processor);
        nFaces          278;
        startFace       7889;
        matchTolerance  0.0001;
        myProcNo        7;
        neighbProcNo    6;
    }
)

// ************************************************************************* //
