/*--------------------------------*- C++ -*----------------------------------*\
  =========                 |
  \\      /  F ield         | OpenFOAM: The Open Source CFD Toolbox
   \\    /   O peration     | Website:  https://openfoam.org
    \\  /    A nd           | Version:  9
     \\/     M anipulation  |
\*---------------------------------------------------------------------------*/
FoamFile
{
    format      ascii;
    class       polyBoundaryMesh;
    location    "0/polyMesh";
    object      boundary;
}
// * * * * * * * * * * * * * * * * * * * * * * * * * * * * * * * * * * * * * //

10
(
    ground
    {
        type            patch;
        nFaces          174;
        startFace       4759;
    }
    outlet
    {
        type            patch;
        nFaces          405;
        startFace       4933;
    }
    wall
    {
        type            patch;
        nFaces          0;
        startFace       5338;
    }
    wall2
    {
        type            patch;
        nFaces          0;
        startFace       5338;
    }
    wall3
    {
        type            patch;
        nFaces          70;
        startFace       5338;
    }
    internalPatch
    {
        type            internal;
        inGroups        List<word> 1(internal);
        nFaces          0;
        startFace       5408;
    }
    procBoundary0to1
    {
        type            processor;
        inGroups        List<word> 1(processor);
        nFaces          230;
        startFace       5408;
        matchTolerance  0.0001;
        myProcNo        0;
        neighbProcNo    1;
    }
    procBoundary0to2
    {
        type            processor;
        inGroups        List<word> 1(processor);
        nFaces          223;
        startFace       5638;
        matchTolerance  0.0001;
        myProcNo        0;
        neighbProcNo    2;
    }
    procBoundary0to6
    {
        type            processor;
        inGroups        List<word> 1(processor);
        nFaces          29;
        startFace       5861;
        matchTolerance  0.0001;
        myProcNo        0;
        neighbProcNo    6;
    }
    procBoundary0to7
    {
        type            processor;
        inGroups        List<word> 1(processor);
        nFaces          52;
        startFace       5890;
        matchTolerance  0.0001;
        myProcNo        0;
        neighbProcNo    7;
    }
)

// ************************************************************************* //
