/*--------------------------------*- C++ -*----------------------------------*\
| =========                 |                                                 |
| \\      /  F ield         | OpenFOAM: The Open Source CFD Toolbox           |
|  \\    /   O peration     | Version:  2.3.0                                 |
|   \\  /    A nd           | Web:      www.OpenFOAM.org                      |
|    \\/     M anipulation  |                                                 |
\*---------------------------------------------------------------------------*/
FoamFile
{
    version     2.0;
    format      ascii;
    class       dictionary;
    location    "system";
    object      controlDict;
}
// * * * * * * * * * * * * * * * * * * * * * * * * * * * * * * * * * * * * * //

application     blastFoam;

startFrom       startTime;

startTime       0;

stopAt          endTime;

endTime         0.0075;

deltaT          1e-7;

writeControl    adjustableRunTime;

writeInterval   5e-5;

cycleWrite      0;

writeFormat     ascii;

writePrecision  6;

writeCompression off;

timeFormat      general;

timePrecision   12;

runTimeModifiable true;

adjustTimeStep  yes;

maxCo           0.5;

maxDeltaT       1;

// * * * * * * * * * * * * * * * * * * * * * * * * * * * * * * * * * * * * * //

functions
{
    impulse
    {
        type                impulse;

        writeControl        writeTime;
        pRef                101298;
    }
    overpressure
    {
        type                overpressure;

        writeControl        writeTime;
        store               yes;
        pRef                101298;
    }
    maxPImpulse
    {
        type                fieldMinMax;

        writeControl        writeTime;
        fields
        (
            overpressure
            impulse
        );
    }

    surfaces
    {
        type                surfaces;
        writeControl        adjustableRunTime;
        writeInterval       1e-4;
        interpolate         false;
        interpolationScheme cellPointFace;
        surfaceFormat       vtkTimeSeries;
        fields ( p );
        surfaces
        (
            ground
            {
                type        patch;
                patches     (ground);
                triangulate false;
            }
            pContours
            {
                type        isoSurface;
                isoField    p;
                isoValues   (1.1e5);
            }
            zNormal
            {
                type        cuttingPlane;
                planeType   pointAndNormal;
                pointAndNormalDict
                {
                    point   (0 0 0.5);
                    normal  (0 0 1);
                }
                interpolate true;
            }
            yNormal
            {
                type        cuttingPlane;
                planeType   pointAndNormal;
                pointAndNormalDict
                {
                    point   (0 0 0.5);
                    normal  (0 1 0);
                }
                interpolate true;
            }
            xNormal
            {
                type        cuttingPlane;
                planeType   pointAndNormal;
                pointAndNormalDict
                {
                    point   (0 0 0.5);
                    normal  (1 0 0);
                }
                interpolate true;
            }
        );
    }

    pressureProbes
    {
        type                blastProbes;
        writeControl        timeStep;
        writeInterval       1;
        adjustLocations     yes;
        append yes;
        probeLocations
        (
            (-4.0 -4.0 1.0)
            (-4.0 -3.9 1.0)
            (-4.0 -3.8 1.0)
            (-4.0 -3.7 1.0)
            (-4.0 -3.6 1.0)
            (-4.0 -3.5 1.0)
            (-4.0 -3.4 1.0)
            (-4.0 -3.3 1.0)
            (-4.0 -3.2 1.0)
            (-4.0 -3.1 1.0)
            (-4.0 -3.0 1.0)
            (-4.0 -2.9 1.0)
            (-4.0 -2.8 1.0)
            (-4.0 -2.7 1.0)
            (-4.0 -2.6 1.0)
            (-4.0 -2.5 1.0)
            (-4.0 -2.4 1.0)
            (-4.0 -2.3 1.0)
            (-4.0 -2.2 1.0)
            (-4.0 -2.1 1.0)
            (-4.0 -2.0 1.0)
            (-4.0 -1.9 1.0)
            (-4.0 -1.8 1.0)
            (-4.0 -1.7 1.0)
            (-4.0 -1.6 1.0)
            (-4.0 -1.5 1.0)
            (-4.0 -1.4 1.0)
            (-4.0 -1.3 1.0)
            (-4.0 -1.2 1.0)
            (-4.0 -1.1 1.0)
            (-4.0 -1.0 1.0)
            (-4.0 -0.9 1.0)
            (-4.0 -0.8 1.0)
            (-4.0 -0.7 1.0)
            (-4.0 -0.6 1.0)
            (-4.0 -0.5 1.0)
            (-4.0 -0.4 1.0)
            (-4.0 -0.3 1.0)
            (-4.0 -0.2 1.0)
            (-4.0 -0.1 1.0)
            (-4.0 0.0 1.0)
            (-4.0 0.1 1.0)
            (-4.0 0.2 1.0)
            (-4.0 0.3 1.0)
            (-4.0 0.4 1.0)
            (-4.0 0.5 1.0)
            (-4.0 0.6 1.0)
            (-4.0 0.7 1.0)
            (-4.0 0.8 1.0)
            (-4.0 0.9 1.0)
            (-4.0 1.0 1.0)
            (-4.0 1.1 1.0)
            (-4.0 1.2 1.0)
            (-4.0 1.3 1.0)
            (-4.0 1.4 1.0)
            (-4.0 1.5 1.0)
            (-4.0 1.6 1.0)
            (-4.0 1.7 1.0)
            (-4.0 1.8 1.0)
            (-4.0 1.9 1.0)
            (-4.0 2.0 1.0)
            (-4.0 2.1 1.0)
            (-4.0 2.2 1.0)
            (-4.0 2.3 1.0)
            (-4.0 2.4 1.0)
            (-4.0 2.5 1.0)
            (-4.0 2.6 1.0)
            (-4.0 2.7 1.0)
            (-4.0 2.8 1.0)
            (-4.0 2.9 1.0)
            (-4.0 3.0 1.0)
            (-4.0 3.1 1.0)
            (-4.0 3.2 1.0)
            (-4.0 3.3 1.0)
            (-4.0 3.4 1.0)
            (-4.0 3.5 1.0)
            (-4.0 3.6 1.0)
            (-4.0 3.7 1.0)
            (-4.0 3.8 1.0)
            (-4.0 3.9 1.0)
            (-4.0 4.0 1.0)
            (-3.9 -4.0 1.0)
            (-3.9 -3.9 1.0)
            (-3.9 -3.8 1.0)
            (-3.9 -3.7 1.0)
            (-3.9 -3.6 1.0)
            (-3.9 -3.5 1.0)
            (-3.9 -3.4 1.0)
            (-3.9 -3.3 1.0)
            (-3.9 -3.2 1.0)
            (-3.9 -3.1 1.0)
            (-3.9 -3.0 1.0)
            (-3.9 -2.9 1.0)
            (-3.9 -2.8 1.0)
            (-3.9 -2.7 1.0)
            (-3.9 -2.6 1.0)
            (-3.9 -2.5 1.0)
            (-3.9 -2.4 1.0)
            (-3.9 -2.3 1.0)
            (-3.9 -2.2 1.0)
            (-3.9 -2.1 1.0)
            (-3.9 -2.0 1.0)
            (-3.9 -1.9 1.0)
            (-3.9 -1.8 1.0)
            (-3.9 -1.7 1.0)
            (-3.9 -1.6 1.0)
            (-3.9 -1.5 1.0)
            (-3.9 -1.4 1.0)
            (-3.9 -1.3 1.0)
            (-3.9 -1.2 1.0)
            (-3.9 -1.1 1.0)
            (-3.9 -1.0 1.0)
            (-3.9 -0.9 1.0)
            (-3.9 -0.8 1.0)
            (-3.9 -0.7 1.0)
            (-3.9 -0.6 1.0)
            (-3.9 -0.5 1.0)
            (-3.9 -0.4 1.0)
            (-3.9 -0.3 1.0)
            (-3.9 -0.2 1.0)
            (-3.9 -0.1 1.0)
            (-3.9 0.0 1.0)
            (-3.9 0.1 1.0)
            (-3.9 0.2 1.0)
            (-3.9 0.3 1.0)
            (-3.9 0.4 1.0)
            (-3.9 0.5 1.0)
            (-3.9 0.6 1.0)
            (-3.9 0.7 1.0)
            (-3.9 0.8 1.0)
            (-3.9 0.9 1.0)
            (-3.9 1.0 1.0)
            (-3.9 1.1 1.0)
            (-3.9 1.2 1.0)
            (-3.9 1.3 1.0)
            (-3.9 1.4 1.0)
            (-3.9 1.5 1.0)
            (-3.9 1.6 1.0)
            (-3.9 1.7 1.0)
            (-3.9 1.8 1.0)
            (-3.9 1.9 1.0)
            (-3.9 2.0 1.0)
            (-3.9 2.1 1.0)
            (-3.9 2.2 1.0)
            (-3.9 2.3 1.0)
            (-3.9 2.4 1.0)
            (-3.9 2.5 1.0)
            (-3.9 2.6 1.0)
            (-3.9 2.7 1.0)
            (-3.9 2.8 1.0)
            (-3.9 2.9 1.0)
            (-3.9 3.0 1.0)
            (-3.9 3.1 1.0)
            (-3.9 3.2 1.0)
            (-3.9 3.3 1.0)
            (-3.9 3.4 1.0)
            (-3.9 3.5 1.0)
            (-3.9 3.6 1.0)
            (-3.9 3.7 1.0)
            (-3.9 3.8 1.0)
            (-3.9 3.9 1.0)
            (-3.9 4.0 1.0)
            (-3.8 -4.0 1.0)
            (-3.8 -3.9 1.0)
            (-3.8 -3.8 1.0)
            (-3.8 -3.7 1.0)
            (-3.8 -3.6 1.0)
            (-3.8 -3.5 1.0)
            (-3.8 -3.4 1.0)
            (-3.8 -3.3 1.0)
            (-3.8 -3.2 1.0)
            (-3.8 -3.1 1.0)
            (-3.8 -3.0 1.0)
            (-3.8 -2.9 1.0)
            (-3.8 -2.8 1.0)
            (-3.8 -2.7 1.0)
            (-3.8 -2.6 1.0)
            (-3.8 -2.5 1.0)
            (-3.8 -2.4 1.0)
            (-3.8 -2.3 1.0)
            (-3.8 -2.2 1.0)
            (-3.8 -2.1 1.0)
            (-3.8 -2.0 1.0)
            (-3.8 -1.9 1.0)
            (-3.8 -1.8 1.0)
            (-3.8 -1.7 1.0)
            (-3.8 -1.6 1.0)
            (-3.8 -1.5 1.0)
            (-3.8 -1.4 1.0)
            (-3.8 -1.3 1.0)
            (-3.8 -1.2 1.0)
            (-3.8 -1.1 1.0)
            (-3.8 -1.0 1.0)
            (-3.8 -0.9 1.0)
            (-3.8 -0.8 1.0)
            (-3.8 -0.7 1.0)
            (-3.8 -0.6 1.0)
            (-3.8 -0.5 1.0)
            (-3.8 -0.4 1.0)
            (-3.8 -0.3 1.0)
            (-3.8 -0.2 1.0)
            (-3.8 -0.1 1.0)
            (-3.8 0.0 1.0)
            (-3.8 0.1 1.0)
            (-3.8 0.2 1.0)
            (-3.8 0.3 1.0)
            (-3.8 0.4 1.0)
            (-3.8 0.5 1.0)
            (-3.8 0.6 1.0)
            (-3.8 0.7 1.0)
            (-3.8 0.8 1.0)
            (-3.8 0.9 1.0)
            (-3.8 1.0 1.0)
            (-3.8 1.1 1.0)
            (-3.8 1.2 1.0)
            (-3.8 1.3 1.0)
            (-3.8 1.4 1.0)
            (-3.8 1.5 1.0)
            (-3.8 1.6 1.0)
            (-3.8 1.7 1.0)
            (-3.8 1.8 1.0)
            (-3.8 1.9 1.0)
            (-3.8 2.0 1.0)
            (-3.8 2.1 1.0)
            (-3.8 2.2 1.0)
            (-3.8 2.3 1.0)
            (-3.8 2.4 1.0)
            (-3.8 2.5 1.0)
            (-3.8 2.6 1.0)
            (-3.8 2.7 1.0)
            (-3.8 2.8 1.0)
            (-3.8 2.9 1.0)
            (-3.8 3.0 1.0)
            (-3.8 3.1 1.0)
            (-3.8 3.2 1.0)
            (-3.8 3.3 1.0)
            (-3.8 3.4 1.0)
            (-3.8 3.5 1.0)
            (-3.8 3.6 1.0)
            (-3.8 3.7 1.0)
            (-3.8 3.8 1.0)
            (-3.8 3.9 1.0)
            (-3.8 4.0 1.0)
            (-3.7 -4.0 1.0)
            (-3.7 -3.9 1.0)
            (-3.7 -3.8 1.0)
            (-3.7 -3.7 1.0)
            (-3.7 -3.6 1.0)
            (-3.7 -3.5 1.0)
            (-3.7 -3.4 1.0)
            (-3.7 -3.3 1.0)
            (-3.7 -3.2 1.0)
            (-3.7 -3.1 1.0)
            (-3.7 -3.0 1.0)
            (-3.7 -2.9 1.0)
            (-3.7 -2.8 1.0)
            (-3.7 -2.7 1.0)
            (-3.7 -2.6 1.0)
            (-3.7 -2.5 1.0)
            (-3.7 -2.4 1.0)
            (-3.7 -2.3 1.0)
            (-3.7 -2.2 1.0)
            (-3.7 -2.1 1.0)
            (-3.7 -2.0 1.0)
            (-3.7 -1.9 1.0)
            (-3.7 -1.8 1.0)
            (-3.7 -1.7 1.0)
            (-3.7 -1.6 1.0)
            (-3.7 -1.5 1.0)
            (-3.7 -1.4 1.0)
            (-3.7 -1.3 1.0)
            (-3.7 -1.2 1.0)
            (-3.7 -1.1 1.0)
            (-3.7 -1.0 1.0)
            (-3.7 -0.9 1.0)
            (-3.7 -0.8 1.0)
            (-3.7 -0.7 1.0)
            (-3.7 -0.6 1.0)
            (-3.7 -0.5 1.0)
            (-3.7 -0.4 1.0)
            (-3.7 -0.3 1.0)
            (-3.7 -0.2 1.0)
            (-3.7 -0.1 1.0)
            (-3.7 0.0 1.0)
            (-3.7 0.1 1.0)
            (-3.7 0.2 1.0)
            (-3.7 0.3 1.0)
            (-3.7 0.4 1.0)
            (-3.7 0.5 1.0)
            (-3.7 0.6 1.0)
            (-3.7 0.7 1.0)
            (-3.7 0.8 1.0)
            (-3.7 0.9 1.0)
            (-3.7 1.0 1.0)
            (-3.7 1.1 1.0)
            (-3.7 1.2 1.0)
            (-3.7 1.3 1.0)
            (-3.7 1.4 1.0)
            (-3.7 1.5 1.0)
            (-3.7 1.6 1.0)
            (-3.7 1.7 1.0)
            (-3.7 1.8 1.0)
            (-3.7 1.9 1.0)
            (-3.7 2.0 1.0)
            (-3.7 2.1 1.0)
            (-3.7 2.2 1.0)
            (-3.7 2.3 1.0)
            (-3.7 2.4 1.0)
            (-3.7 2.5 1.0)
            (-3.7 2.6 1.0)
            (-3.7 2.7 1.0)
            (-3.7 2.8 1.0)
            (-3.7 2.9 1.0)
            (-3.7 3.0 1.0)
            (-3.7 3.1 1.0)
            (-3.7 3.2 1.0)
            (-3.7 3.3 1.0)
            (-3.7 3.4 1.0)
            (-3.7 3.5 1.0)
            (-3.7 3.6 1.0)
            (-3.7 3.7 1.0)
            (-3.7 3.8 1.0)
            (-3.7 3.9 1.0)
            (-3.7 4.0 1.0)
            (-3.6 -4.0 1.0)
            (-3.6 -3.9 1.0)
            (-3.6 -3.8 1.0)
            (-3.6 -3.7 1.0)
            (-3.6 -3.6 1.0)
            (-3.6 -3.5 1.0)
            (-3.6 -3.4 1.0)
            (-3.6 -3.3 1.0)
            (-3.6 -3.2 1.0)
            (-3.6 -3.1 1.0)
            (-3.6 -3.0 1.0)
            (-3.6 -2.9 1.0)
            (-3.6 -2.8 1.0)
            (-3.6 -2.7 1.0)
            (-3.6 -2.6 1.0)
            (-3.6 -2.5 1.0)
            (-3.6 -2.4 1.0)
            (-3.6 -2.3 1.0)
            (-3.6 -2.2 1.0)
            (-3.6 -2.1 1.0)
            (-3.6 -2.0 1.0)
            (-3.6 -1.9 1.0)
            (-3.6 -1.8 1.0)
            (-3.6 -1.7 1.0)
            (-3.6 -1.6 1.0)
            (-3.6 -1.5 1.0)
            (-3.6 -1.4 1.0)
            (-3.6 -1.3 1.0)
            (-3.6 -1.2 1.0)
            (-3.6 -1.1 1.0)
            (-3.6 -1.0 1.0)
            (-3.6 -0.9 1.0)
            (-3.6 -0.8 1.0)
            (-3.6 -0.7 1.0)
            (-3.6 -0.6 1.0)
            (-3.6 -0.5 1.0)
            (-3.6 -0.4 1.0)
            (-3.6 -0.3 1.0)
            (-3.6 -0.2 1.0)
            (-3.6 -0.1 1.0)
            (-3.6 0.0 1.0)
            (-3.6 0.1 1.0)
            (-3.6 0.2 1.0)
            (-3.6 0.3 1.0)
            (-3.6 0.4 1.0)
            (-3.6 0.5 1.0)
            (-3.6 0.6 1.0)
            (-3.6 0.7 1.0)
            (-3.6 0.8 1.0)
            (-3.6 0.9 1.0)
            (-3.6 1.0 1.0)
            (-3.6 1.1 1.0)
            (-3.6 1.2 1.0)
            (-3.6 1.3 1.0)
            (-3.6 1.4 1.0)
            (-3.6 1.5 1.0)
            (-3.6 1.6 1.0)
            (-3.6 1.7 1.0)
            (-3.6 1.8 1.0)
            (-3.6 1.9 1.0)
            (-3.6 2.0 1.0)
            (-3.6 2.1 1.0)
            (-3.6 2.2 1.0)
            (-3.6 2.3 1.0)
            (-3.6 2.4 1.0)
            (-3.6 2.5 1.0)
            (-3.6 2.6 1.0)
            (-3.6 2.7 1.0)
            (-3.6 2.8 1.0)
            (-3.6 2.9 1.0)
            (-3.6 3.0 1.0)
            (-3.6 3.1 1.0)
            (-3.6 3.2 1.0)
            (-3.6 3.3 1.0)
            (-3.6 3.4 1.0)
            (-3.6 3.5 1.0)
            (-3.6 3.6 1.0)
            (-3.6 3.7 1.0)
            (-3.6 3.8 1.0)
            (-3.6 3.9 1.0)
            (-3.6 4.0 1.0)
            (-3.5 -4.0 1.0)
            (-3.5 -3.9 1.0)
            (-3.5 -3.8 1.0)
            (-3.5 -3.7 1.0)
            (-3.5 -3.6 1.0)
            (-3.5 -3.5 1.0)
            (-3.5 -3.4 1.0)
            (-3.5 -3.3 1.0)
            (-3.5 -3.2 1.0)
            (-3.5 -3.1 1.0)
            (-3.5 -3.0 1.0)
            (-3.5 -2.9 1.0)
            (-3.5 -2.8 1.0)
            (-3.5 -2.7 1.0)
            (-3.5 -2.6 1.0)
            (-3.5 -2.5 1.0)
            (-3.5 -2.4 1.0)
            (-3.5 -2.3 1.0)
            (-3.5 -2.2 1.0)
            (-3.5 -2.1 1.0)
            (-3.5 -2.0 1.0)
            (-3.5 -1.9 1.0)
            (-3.5 -1.8 1.0)
            (-3.5 -1.7 1.0)
            (-3.5 -1.6 1.0)
            (-3.5 -1.5 1.0)
            (-3.5 -1.4 1.0)
            (-3.5 -1.3 1.0)
            (-3.5 -1.2 1.0)
            (-3.5 -1.1 1.0)
            (-3.5 -1.0 1.0)
            (-3.5 -0.9 1.0)
            (-3.5 -0.8 1.0)
            (-3.5 -0.7 1.0)
            (-3.5 -0.6 1.0)
            (-3.5 -0.5 1.0)
            (-3.5 -0.4 1.0)
            (-3.5 -0.3 1.0)
            (-3.5 -0.2 1.0)
            (-3.5 -0.1 1.0)
            (-3.5 0.0 1.0)
            (-3.5 0.1 1.0)
            (-3.5 0.2 1.0)
            (-3.5 0.3 1.0)
            (-3.5 0.4 1.0)
            (-3.5 0.5 1.0)
            (-3.5 0.6 1.0)
            (-3.5 0.7 1.0)
            (-3.5 0.8 1.0)
            (-3.5 0.9 1.0)
            (-3.5 1.0 1.0)
            (-3.5 1.1 1.0)
            (-3.5 1.2 1.0)
            (-3.5 1.3 1.0)
            (-3.5 1.4 1.0)
            (-3.5 1.5 1.0)
            (-3.5 1.6 1.0)
            (-3.5 1.7 1.0)
            (-3.5 1.8 1.0)
            (-3.5 1.9 1.0)
            (-3.5 2.0 1.0)
            (-3.5 2.1 1.0)
            (-3.5 2.2 1.0)
            (-3.5 2.3 1.0)
            (-3.5 2.4 1.0)
            (-3.5 2.5 1.0)
            (-3.5 2.6 1.0)
            (-3.5 2.7 1.0)
            (-3.5 2.8 1.0)
            (-3.5 2.9 1.0)
            (-3.5 3.0 1.0)
            (-3.5 3.1 1.0)
            (-3.5 3.2 1.0)
            (-3.5 3.3 1.0)
            (-3.5 3.4 1.0)
            (-3.5 3.5 1.0)
            (-3.5 3.6 1.0)
            (-3.5 3.7 1.0)
            (-3.5 3.8 1.0)
            (-3.5 3.9 1.0)
            (-3.5 4.0 1.0)
            (-3.4 -4.0 1.0)
            (-3.4 -3.9 1.0)
            (-3.4 -3.8 1.0)
            (-3.4 -3.7 1.0)
            (-3.4 -3.6 1.0)
            (-3.4 -3.5 1.0)
            (-3.4 -3.4 1.0)
            (-3.4 -3.3 1.0)
            (-3.4 -3.2 1.0)
            (-3.4 -3.1 1.0)
            (-3.4 -3.0 1.0)
            (-3.4 -2.9 1.0)
            (-3.4 -2.8 1.0)
            (-3.4 -2.7 1.0)
            (-3.4 -2.6 1.0)
            (-3.4 -2.5 1.0)
            (-3.4 -2.4 1.0)
            (-3.4 -2.3 1.0)
            (-3.4 -2.2 1.0)
            (-3.4 -2.1 1.0)
            (-3.4 -2.0 1.0)
            (-3.4 -1.9 1.0)
            (-3.4 -1.8 1.0)
            (-3.4 -1.7 1.0)
            (-3.4 -1.6 1.0)
            (-3.4 -1.5 1.0)
            (-3.4 -1.4 1.0)
            (-3.4 -1.3 1.0)
            (-3.4 -1.2 1.0)
            (-3.4 -1.1 1.0)
            (-3.4 -1.0 1.0)
            (-3.4 -0.9 1.0)
            (-3.4 -0.8 1.0)
            (-3.4 -0.7 1.0)
            (-3.4 -0.6 1.0)
            (-3.4 -0.5 1.0)
            (-3.4 -0.4 1.0)
            (-3.4 -0.3 1.0)
            (-3.4 -0.2 1.0)
            (-3.4 -0.1 1.0)
            (-3.4 0.0 1.0)
            (-3.4 0.1 1.0)
            (-3.4 0.2 1.0)
            (-3.4 0.3 1.0)
            (-3.4 0.4 1.0)
            (-3.4 0.5 1.0)
            (-3.4 0.6 1.0)
            (-3.4 0.7 1.0)
            (-3.4 0.8 1.0)
            (-3.4 0.9 1.0)
            (-3.4 1.0 1.0)
            (-3.4 1.1 1.0)
            (-3.4 1.2 1.0)
            (-3.4 1.3 1.0)
            (-3.4 1.4 1.0)
            (-3.4 1.5 1.0)
            (-3.4 1.6 1.0)
            (-3.4 1.7 1.0)
            (-3.4 1.8 1.0)
            (-3.4 1.9 1.0)
            (-3.4 2.0 1.0)
            (-3.4 2.1 1.0)
            (-3.4 2.2 1.0)
            (-3.4 2.3 1.0)
            (-3.4 2.4 1.0)
            (-3.4 2.5 1.0)
            (-3.4 2.6 1.0)
            (-3.4 2.7 1.0)
            (-3.4 2.8 1.0)
            (-3.4 2.9 1.0)
            (-3.4 3.0 1.0)
            (-3.4 3.1 1.0)
            (-3.4 3.2 1.0)
            (-3.4 3.3 1.0)
            (-3.4 3.4 1.0)
            (-3.4 3.5 1.0)
            (-3.4 3.6 1.0)
            (-3.4 3.7 1.0)
            (-3.4 3.8 1.0)
            (-3.4 3.9 1.0)
            (-3.4 4.0 1.0)
            (-3.3 -4.0 1.0)
            (-3.3 -3.9 1.0)
            (-3.3 -3.8 1.0)
            (-3.3 -3.7 1.0)
            (-3.3 -3.6 1.0)
            (-3.3 -3.5 1.0)
            (-3.3 -3.4 1.0)
            (-3.3 -3.3 1.0)
            (-3.3 -3.2 1.0)
            (-3.3 -3.1 1.0)
            (-3.3 -3.0 1.0)
            (-3.3 -2.9 1.0)
            (-3.3 -2.8 1.0)
            (-3.3 -2.7 1.0)
            (-3.3 -2.6 1.0)
            (-3.3 -2.5 1.0)
            (-3.3 -2.4 1.0)
            (-3.3 -2.3 1.0)
            (-3.3 -2.2 1.0)
            (-3.3 -2.1 1.0)
            (-3.3 -2.0 1.0)
            (-3.3 -1.9 1.0)
            (-3.3 -1.8 1.0)
            (-3.3 -1.7 1.0)
            (-3.3 -1.6 1.0)
            (-3.3 -1.5 1.0)
            (-3.3 -1.4 1.0)
            (-3.3 -1.3 1.0)
            (-3.3 -1.2 1.0)
            (-3.3 -1.1 1.0)
            (-3.3 -1.0 1.0)
            (-3.3 -0.9 1.0)
            (-3.3 -0.8 1.0)
            (-3.3 -0.7 1.0)
            (-3.3 -0.6 1.0)
            (-3.3 -0.5 1.0)
            (-3.3 -0.4 1.0)
            (-3.3 -0.3 1.0)
            (-3.3 -0.2 1.0)
            (-3.3 -0.1 1.0)
            (-3.3 0.0 1.0)
            (-3.3 0.1 1.0)
            (-3.3 0.2 1.0)
            (-3.3 0.3 1.0)
            (-3.3 0.4 1.0)
            (-3.3 0.5 1.0)
            (-3.3 0.6 1.0)
            (-3.3 0.7 1.0)
            (-3.3 0.8 1.0)
            (-3.3 0.9 1.0)
            (-3.3 1.0 1.0)
            (-3.3 1.1 1.0)
            (-3.3 1.2 1.0)
            (-3.3 1.3 1.0)
            (-3.3 1.4 1.0)
            (-3.3 1.5 1.0)
            (-3.3 1.6 1.0)
            (-3.3 1.7 1.0)
            (-3.3 1.8 1.0)
            (-3.3 1.9 1.0)
            (-3.3 2.0 1.0)
            (-3.3 2.1 1.0)
            (-3.3 2.2 1.0)
            (-3.3 2.3 1.0)
            (-3.3 2.4 1.0)
            (-3.3 2.5 1.0)
            (-3.3 2.6 1.0)
            (-3.3 2.7 1.0)
            (-3.3 2.8 1.0)
            (-3.3 2.9 1.0)
            (-3.3 3.0 1.0)
            (-3.3 3.1 1.0)
            (-3.3 3.2 1.0)
            (-3.3 3.3 1.0)
            (-3.3 3.4 1.0)
            (-3.3 3.5 1.0)
            (-3.3 3.6 1.0)
            (-3.3 3.7 1.0)
            (-3.3 3.8 1.0)
            (-3.3 3.9 1.0)
            (-3.3 4.0 1.0)
            (-3.2 -4.0 1.0)
            (-3.2 -3.9 1.0)
            (-3.2 -3.8 1.0)
            (-3.2 -3.7 1.0)
            (-3.2 -3.6 1.0)
            (-3.2 -3.5 1.0)
            (-3.2 -3.4 1.0)
            (-3.2 -3.3 1.0)
            (-3.2 -3.2 1.0)
            (-3.2 -3.1 1.0)
            (-3.2 -3.0 1.0)
            (-3.2 -2.9 1.0)
            (-3.2 -2.8 1.0)
            (-3.2 -2.7 1.0)
            (-3.2 -2.6 1.0)
            (-3.2 -2.5 1.0)
            (-3.2 -2.4 1.0)
            (-3.2 -2.3 1.0)
            (-3.2 -2.2 1.0)
            (-3.2 -2.1 1.0)
            (-3.2 -2.0 1.0)
            (-3.2 -1.9 1.0)
            (-3.2 -1.8 1.0)
            (-3.2 -1.7 1.0)
            (-3.2 -1.6 1.0)
            (-3.2 -1.5 1.0)
            (-3.2 -1.4 1.0)
            (-3.2 -1.3 1.0)
            (-3.2 -1.2 1.0)
            (-3.2 -1.1 1.0)
            (-3.2 -1.0 1.0)
            (-3.2 -0.9 1.0)
            (-3.2 -0.8 1.0)
            (-3.2 -0.7 1.0)
            (-3.2 -0.6 1.0)
            (-3.2 -0.5 1.0)
            (-3.2 -0.4 1.0)
            (-3.2 -0.3 1.0)
            (-3.2 -0.2 1.0)
            (-3.2 -0.1 1.0)
            (-3.2 0.0 1.0)
            (-3.2 0.1 1.0)
            (-3.2 0.2 1.0)
            (-3.2 0.3 1.0)
            (-3.2 0.4 1.0)
            (-3.2 0.5 1.0)
            (-3.2 0.6 1.0)
            (-3.2 0.7 1.0)
            (-3.2 0.8 1.0)
            (-3.2 0.9 1.0)
            (-3.2 1.0 1.0)
            (-3.2 1.1 1.0)
            (-3.2 1.2 1.0)
            (-3.2 1.3 1.0)
            (-3.2 1.4 1.0)
            (-3.2 1.5 1.0)
            (-3.2 1.6 1.0)
            (-3.2 1.7 1.0)
            (-3.2 1.8 1.0)
            (-3.2 1.9 1.0)
            (-3.2 2.0 1.0)
            (-3.2 2.1 1.0)
            (-3.2 2.2 1.0)
            (-3.2 2.3 1.0)
            (-3.2 2.4 1.0)
            (-3.2 2.5 1.0)
            (-3.2 2.6 1.0)
            (-3.2 2.7 1.0)
            (-3.2 2.8 1.0)
            (-3.2 2.9 1.0)
            (-3.2 3.0 1.0)
            (-3.2 3.1 1.0)
            (-3.2 3.2 1.0)
            (-3.2 3.3 1.0)
            (-3.2 3.4 1.0)
            (-3.2 3.5 1.0)
            (-3.2 3.6 1.0)
            (-3.2 3.7 1.0)
            (-3.2 3.8 1.0)
            (-3.2 3.9 1.0)
            (-3.2 4.0 1.0)
            (-3.1 -4.0 1.0)
            (-3.1 -3.9 1.0)
            (-3.1 -3.8 1.0)
            (-3.1 -3.7 1.0)
            (-3.1 -3.6 1.0)
            (-3.1 -3.5 1.0)
            (-3.1 -3.4 1.0)
            (-3.1 -3.3 1.0)
            (-3.1 -3.2 1.0)
            (-3.1 -3.1 1.0)
            (-3.1 -3.0 1.0)
            (-3.1 -2.9 1.0)
            (-3.1 -2.8 1.0)
            (-3.1 -2.7 1.0)
            (-3.1 -2.6 1.0)
            (-3.1 -2.5 1.0)
            (-3.1 -2.4 1.0)
            (-3.1 -2.3 1.0)
            (-3.1 -2.2 1.0)
            (-3.1 -2.1 1.0)
            (-3.1 -2.0 1.0)
            (-3.1 -1.9 1.0)
            (-3.1 -1.8 1.0)
            (-3.1 -1.7 1.0)
            (-3.1 -1.6 1.0)
            (-3.1 -1.5 1.0)
            (-3.1 -1.4 1.0)
            (-3.1 -1.3 1.0)
            (-3.1 -1.2 1.0)
            (-3.1 -1.1 1.0)
            (-3.1 -1.0 1.0)
            (-3.1 -0.9 1.0)
            (-3.1 -0.8 1.0)
            (-3.1 -0.7 1.0)
            (-3.1 -0.6 1.0)
            (-3.1 -0.5 1.0)
            (-3.1 -0.4 1.0)
            (-3.1 -0.3 1.0)
            (-3.1 -0.2 1.0)
            (-3.1 -0.1 1.0)
            (-3.1 0.0 1.0)
            (-3.1 0.1 1.0)
            (-3.1 0.2 1.0)
            (-3.1 0.3 1.0)
            (-3.1 0.4 1.0)
            (-3.1 0.5 1.0)
            (-3.1 0.6 1.0)
            (-3.1 0.7 1.0)
            (-3.1 0.8 1.0)
            (-3.1 0.9 1.0)
            (-3.1 1.0 1.0)
            (-3.1 1.1 1.0)
            (-3.1 1.2 1.0)
            (-3.1 1.3 1.0)
            (-3.1 1.4 1.0)
            (-3.1 1.5 1.0)
            (-3.1 1.6 1.0)
            (-3.1 1.7 1.0)
            (-3.1 1.8 1.0)
            (-3.1 1.9 1.0)
            (-3.1 2.0 1.0)
            (-3.1 2.1 1.0)
            (-3.1 2.2 1.0)
            (-3.1 2.3 1.0)
            (-3.1 2.4 1.0)
            (-3.1 2.5 1.0)
            (-3.1 2.6 1.0)
            (-3.1 2.7 1.0)
            (-3.1 2.8 1.0)
            (-3.1 2.9 1.0)
            (-3.1 3.0 1.0)
            (-3.1 3.1 1.0)
            (-3.1 3.2 1.0)
            (-3.1 3.3 1.0)
            (-3.1 3.4 1.0)
            (-3.1 3.5 1.0)
            (-3.1 3.6 1.0)
            (-3.1 3.7 1.0)
            (-3.1 3.8 1.0)
            (-3.1 3.9 1.0)
            (-3.1 4.0 1.0)
            (-3.0 -4.0 1.0)
            (-3.0 -3.9 1.0)
            (-3.0 -3.8 1.0)
            (-3.0 -3.7 1.0)
            (-3.0 -3.6 1.0)
            (-3.0 -3.5 1.0)
            (-3.0 -3.4 1.0)
            (-3.0 -3.3 1.0)
            (-3.0 -3.2 1.0)
            (-3.0 -3.1 1.0)
            (-3.0 -3.0 1.0)
            (-3.0 -2.9 1.0)
            (-3.0 -2.8 1.0)
            (-3.0 -2.7 1.0)
            (-3.0 -2.6 1.0)
            (-3.0 -2.5 1.0)
            (-3.0 -2.4 1.0)
            (-3.0 -2.3 1.0)
            (-3.0 -2.2 1.0)
            (-3.0 -2.1 1.0)
            (-3.0 -2.0 1.0)
            (-3.0 -1.9 1.0)
            (-3.0 -1.8 1.0)
            (-3.0 -1.7 1.0)
            (-3.0 -1.6 1.0)
            (-3.0 -1.5 1.0)
            (-3.0 -1.4 1.0)
            (-3.0 -1.3 1.0)
            (-3.0 -1.2 1.0)
            (-3.0 -1.1 1.0)
            (-3.0 -1.0 1.0)
            (-3.0 -0.9 1.0)
            (-3.0 -0.8 1.0)
            (-3.0 -0.7 1.0)
            (-3.0 -0.6 1.0)
            (-3.0 -0.5 1.0)
            (-3.0 -0.4 1.0)
            (-3.0 -0.3 1.0)
            (-3.0 -0.2 1.0)
            (-3.0 -0.1 1.0)
            (-3.0 0.0 1.0)
            (-3.0 0.1 1.0)
            (-3.0 0.2 1.0)
            (-3.0 0.3 1.0)
            (-3.0 0.4 1.0)
            (-3.0 0.5 1.0)
            (-3.0 0.6 1.0)
            (-3.0 0.7 1.0)
            (-3.0 0.8 1.0)
            (-3.0 0.9 1.0)
            (-3.0 1.0 1.0)
            (-3.0 1.1 1.0)
            (-3.0 1.2 1.0)
            (-3.0 1.3 1.0)
            (-3.0 1.4 1.0)
            (-3.0 1.5 1.0)
            (-3.0 1.6 1.0)
            (-3.0 1.7 1.0)
            (-3.0 1.8 1.0)
            (-3.0 1.9 1.0)
            (-3.0 2.0 1.0)
            (-3.0 2.1 1.0)
            (-3.0 2.2 1.0)
            (-3.0 2.3 1.0)
            (-3.0 2.4 1.0)
            (-3.0 2.5 1.0)
            (-3.0 2.6 1.0)
            (-3.0 2.7 1.0)
            (-3.0 2.8 1.0)
            (-3.0 2.9 1.0)
            (-3.0 3.0 1.0)
            (-3.0 3.1 1.0)
            (-3.0 3.2 1.0)
            (-3.0 3.3 1.0)
            (-3.0 3.4 1.0)
            (-3.0 3.5 1.0)
            (-3.0 3.6 1.0)
            (-3.0 3.7 1.0)
            (-3.0 3.8 1.0)
            (-3.0 3.9 1.0)
            (-3.0 4.0 1.0)
            (-2.9 -4.0 1.0)
            (-2.9 -3.9 1.0)
            (-2.9 -3.8 1.0)
            (-2.9 -3.7 1.0)
            (-2.9 -3.6 1.0)
            (-2.9 -3.5 1.0)
            (-2.9 -3.4 1.0)
            (-2.9 -3.3 1.0)
            (-2.9 -3.2 1.0)
            (-2.9 -3.1 1.0)
            (-2.9 -3.0 1.0)
            (-2.9 -2.9 1.0)
            (-2.9 -2.8 1.0)
            (-2.9 -2.7 1.0)
            (-2.9 -2.6 1.0)
            (-2.9 -2.5 1.0)
            (-2.9 -2.4 1.0)
            (-2.9 -2.3 1.0)
            (-2.9 -2.2 1.0)
            (-2.9 -2.1 1.0)
            (-2.9 -2.0 1.0)
            (-2.9 -1.9 1.0)
            (-2.9 -1.8 1.0)
            (-2.9 -1.7 1.0)
            (-2.9 -1.6 1.0)
            (-2.9 -1.5 1.0)
            (-2.9 -1.4 1.0)
            (-2.9 -1.3 1.0)
            (-2.9 -1.2 1.0)
            (-2.9 -1.1 1.0)
            (-2.9 -1.0 1.0)
            (-2.9 -0.9 1.0)
            (-2.9 -0.8 1.0)
            (-2.9 -0.7 1.0)
            (-2.9 -0.6 1.0)
            (-2.9 -0.5 1.0)
            (-2.9 -0.4 1.0)
            (-2.9 -0.3 1.0)
            (-2.9 -0.2 1.0)
            (-2.9 -0.1 1.0)
            (-2.9 0.0 1.0)
            (-2.9 0.1 1.0)
            (-2.9 0.2 1.0)
            (-2.9 0.3 1.0)
            (-2.9 0.4 1.0)
            (-2.9 0.5 1.0)
            (-2.9 0.6 1.0)
            (-2.9 0.7 1.0)
            (-2.9 0.8 1.0)
            (-2.9 0.9 1.0)
            (-2.9 1.0 1.0)
            (-2.9 1.1 1.0)
            (-2.9 1.2 1.0)
            (-2.9 1.3 1.0)
            (-2.9 1.4 1.0)
            (-2.9 1.5 1.0)
            (-2.9 1.6 1.0)
            (-2.9 1.7 1.0)
            (-2.9 1.8 1.0)
            (-2.9 1.9 1.0)
            (-2.9 2.0 1.0)
            (-2.9 2.1 1.0)
            (-2.9 2.2 1.0)
            (-2.9 2.3 1.0)
            (-2.9 2.4 1.0)
            (-2.9 2.5 1.0)
            (-2.9 2.6 1.0)
            (-2.9 2.7 1.0)