/*--------------------------------*- C++ -*----------------------------------*\
  =========                 |
  \\      /  F ield         | OpenFOAM: The Open Source CFD Toolbox
   \\    /   O peration     | Website:  https://openfoam.org
    \\  /    A nd           | Version:  9
     \\/     M anipulation  |
\*---------------------------------------------------------------------------*/
FoamFile
{
    format      ascii;
    class       polyBoundaryMesh;
    location    "0.0016/polyMesh";
    object      boundary;
}
// * * * * * * * * * * * * * * * * * * * * * * * * * * * * * * * * * * * * * //

9
(
    ground
    {
        type            patch;
        nFaces          686;
        startFace       39155;
    }
    outlet
    {
        type            patch;
        nFaces          158;
        startFace       39841;
    }
    wall
    {
        type            patch;
        nFaces          0;
        startFace       39999;
    }
    wall2
    {
        type            patch;
        nFaces          0;
        startFace       39999;
    }
    wall3
    {
        type            patch;
        nFaces          0;
        startFace       39999;
    }
    internalPatch
    {
        type            internal;
        inGroups        List<word> 1(internal);
        nFaces          0;
        startFace       39999;
    }
    procBoundary5to0
    {
        type            processor;
        inGroups        List<word> 1(processor);
        nFaces          337;
        startFace       39999;
        matchTolerance  0.0001;
        myProcNo        5;
        neighbProcNo    0;
    }
    procBoundary5to3
    {
        type            processor;
        inGroups        List<word> 1(processor);
        nFaces          612;
        startFace       40336;
        matchTolerance  0.0001;
        myProcNo        5;
        neighbProcNo    3;
    }
    procBoundary5to4
    {
        type            processor;
        inGroups        List<word> 1(processor);
        nFaces          930;
        startFace       40948;
        matchTolerance  0.0001;
        myProcNo        5;
        neighbProcNo    4;
    }
)

// ************************************************************************* //
