/*--------------------------------*- C++ -*----------------------------------*\
  =========                 |
  \\      /  F ield         | OpenFOAM: The Open Source CFD Toolbox
   \\    /   O peration     | Website:  https://openfoam.org
    \\  /    A nd           | Version:  9
     \\/     M anipulation  |
\*---------------------------------------------------------------------------*/
FoamFile
{
    format      ascii;
    class       polyBoundaryMesh;
    location    "0.0003/polyMesh";
    object      boundary;
}
// * * * * * * * * * * * * * * * * * * * * * * * * * * * * * * * * * * * * * //

12
(
    ground
    {
        type            patch;
        nFaces          202;
        startFace       6896;
    }
    outlet
    {
        type            patch;
        nFaces          614;
        startFace       7098;
    }
    wall
    {
        type            patch;
        nFaces          0;
        startFace       7712;
    }
    wall2
    {
        type            patch;
        nFaces          0;
        startFace       7712;
    }
    wall3
    {
        type            patch;
        nFaces          0;
        startFace       7712;
    }
    internalPatch
    {
        type            internal;
        inGroups        List<word> 1(internal);
        nFaces          0;
        startFace       7712;
    }
    procBoundary0to1
    {
        type            processor;
        inGroups        List<word> 1(processor);
        nFaces          120;
        startFace       7712;
        matchTolerance  0.0001;
        myProcNo        0;
        neighbProcNo    1;
    }
    procBoundary0to2
    {
        type            processor;
        inGroups        List<word> 1(processor);
        nFaces          384;
        startFace       7832;
        matchTolerance  0.0001;
        myProcNo        0;
        neighbProcNo    2;
    }
    procBoundary0to3
    {
        type            processor;
        inGroups        List<word> 1(processor);
        nFaces          249;
        startFace       8216;
        matchTolerance  0.0001;
        myProcNo        0;
        neighbProcNo    3;
    }
    procBoundary0to4
    {
        type            processor;
        inGroups        List<word> 1(processor);
        nFaces          147;
        startFace       8465;
        matchTolerance  0.0001;
        myProcNo        0;
        neighbProcNo    4;
    }
    procBoundary0to6
    {
        type            processor;
        inGroups        List<word> 1(processor);
        nFaces          50;
        startFace       8612;
        matchTolerance  0.0001;
        myProcNo        0;
        neighbProcNo    6;
    }
    procBoundary0to7
    {
        type            processor;
        inGroups        List<word> 1(processor);
        nFaces          39;
        startFace       8662;
        matchTolerance  0.0001;
        myProcNo        0;
        neighbProcNo    7;
    }
)

// ************************************************************************* //
