/*--------------------------------*- C++ -*----------------------------------*\
  =========                 |
  \\      /  F ield         | OpenFOAM: The Open Source CFD Toolbox
   \\    /   O peration     | Website:  https://openfoam.org
    \\  /    A nd           | Version:  9
     \\/     M anipulation  |
\*---------------------------------------------------------------------------*/
FoamFile
{
    format      ascii;
    class       polyBoundaryMesh;
    location    "0.00085/polyMesh";
    object      boundary;
}
// * * * * * * * * * * * * * * * * * * * * * * * * * * * * * * * * * * * * * //

6
(
    ground
    {
        type            patch;
        nFaces          2890;
        startFace       133413;
    }
    outlet
    {
        type            patch;
        nFaces          2195;
        startFace       136303;
    }
    wall
    {
        type            patch;
        nFaces          1038;
        startFace       138498;
    }
    wall2
    {
        type            patch;
        nFaces          624;
        startFace       139536;
    }
    wall3
    {
        type            patch;
        nFaces          564;
        startFace       140160;
    }
    internalPatch
    {
        type            internal;
        inGroups        List<word> 1(internal);
        nFaces          0;
        startFace       140724;
    }
)

// ************************************************************************* //
