/*--------------------------------*- C++ -*----------------------------------*\
  =========                 |
  \\      /  F ield         | OpenFOAM: The Open Source CFD Toolbox
   \\    /   O peration     | Website:  https://openfoam.org
    \\  /    A nd           | Version:  9
     \\/     M anipulation  |
\*---------------------------------------------------------------------------*/
FoamFile
{
    format      ascii;
    class       vectorField;
    location    "0/polyMesh";
    object      points0;
}
// * * * * * * * * * * * * * * * * * * * * * * * * * * * * * * * * * * * * * //


2929
(
(1.8 -0.2 0)
(1.8 -0.2 0.5)
(1.4 -0.2 0.5)
(1.4 -0.2 0)
(1 -0.2 0.5)
(1 -0.2 0)
(1 0.2 0.5)
(1 0.2 0)
(1 0.6 0.5)
(1 0.6 0)
(1 1 0.5)
(1 1 0)
(0.2 1 3)
(0.6 1 3)
(0.6 1 3.5)
(0.2 1 3.5)
(0.6 1 4)
(0.2 1 4)
(0.6 1 4.5)
(0.2 1 4.5)
(0.6 1 5)
(0.2 1 5)
(0.6 0.6 4.5)
(0.6 0.6 5)
(0.6 0.2 4.5)
(0.6 0.2 5)
(1 0.2 4.5)
(1 0.2 5)
(1 -0.2 4.5)
(1 -0.2 5)
(1.4 -0.2 4.5)
(1.4 -0.2 5)
(1.8 -0.2 4.5)
(1.8 -0.2 5)
(1.8 -0.2 1)
(1.4 -0.2 1)
(1 -0.2 1)
(1 0.2 1)
(1 0.6 1)
(1 1 1)
(1 0.6 1.5)
(1 1 1.5)
(0.6 0.6 1.5)
(0.6 1 1.5)
(0.6 0.6 2)
(0.6 1 2)
(0.6 0.6 2.5)
(0.6 1 2.5)
(0.6 0.6 3)
(0.6 0.6 3.5)
(0.6 0.6 4)
(0.6 0.2 4)
(1 0.2 4)
(1 -0.2 4)
(1.4 -0.2 4)
(1.8 -0.2 4)
(1.4 -0.2 3.5)
(1.8 -0.2 3.5)
(1.4 -0.2 3)
(1.8 -0.2 3)
(1.4 -0.2 2.5)
(1.8 -0.2 2.5)
(1.4 -0.2 2)
(1.8 -0.2 2)
(1.4 -0.2 1.5)
(1.8 -0.2 1.5)
(1 -0.2 1.5)
(1 0.2 1.5)
(0.6 0.2 1.5)
(0.6 0.2 2)
(0.6 0.2 2.5)
(0.6 0.2 3)
(0.6 0.2 3.5)
(1 0.2 3.5)
(1 -0.2 3.5)
(1 -0.2 3)
(1 -0.2 2.5)
(1 -0.2 2)
(1 0.2 2)
(1 0.2 2.5)
(1 0.2 3)
(-0.2 1 3.5)
(-0.2 1 3)
(-0.2 1 4)
(-0.2 1 4.5)
(-0.2 1 5)
(0.2 1.4 5)
(0.2 1.4 4.5)
(0.2 1.4 4)
(0.2 1.4 3.5)
(0.2 1.4 3)
(1.8 1 0.5)
(1.8 1 0)
(1.4 1 0.5)
(1.4 1 0)
(1 1 2)
(1.4 1 2)
(1.8 1 2)
(1.8 1 1.5)
(1.8 1 1)
(1.4 1 1)
(1.4 1 1.5)
(1.8 1 4.5)
(1.8 1 5)
(1.8 1 4)
(1.8 1 3.5)
(1.8 1 3)
(1.8 1 2.5)
(1 1 5)
(1 1 4.5)
(1.4 1 5)
(1.4 1 4.5)
(1.4 1 4)
(1.4 1 3.5)
(1.4 1 3)
(1.4 1 2.5)
(1 1 2.5)
(1 1 3)
(1 1 3.5)
(1 1 4)
(1.4 0.2 4)
(1.4 0.2 3.5)
(1.4 0.2 3)
(1.8 0.2 3.5)
(1.8 0.2 3)
(1.8 0.2 4)
(1.4 0.2 4.5)
(1.8 0.2 4.5)
(1.4 0.2 2.5)
(1.8 0.2 2.5)
(1.8 0.2 5)
(1.4 0.2 5)
(1.4 0.2 2)
(1.8 0.2 2)
(1.8 0.2 0)
(1.8 0.2 0.5)
(1.4 0.2 0)
(1.4 0.2 0.5)
(1 0.6 2)
(1.4 0.2 1.5)
(1.8 0.2 1.5)
(1.8 0.2 1)
(1.4 0.2 1)
(1.4 0.6 0)
(1.4 0.6 0.5)
(1.4 0.6 5)
(1.4 0.6 4.5)
(1.4 0.6 1)
(1.4 0.6 4)
(1.4 0.6 3.5)
(1.4 0.6 3)
(1.4 0.6 2.5)
(1.4 0.6 2)
(1.4 0.6 1.5)
(1 0.6 2.5)
(1 0.6 3)
(1 0.6 3.5)
(1 0.6 4)
(1 0.6 4.5)
(1 0.6 5)
(1.8 0.6 0)
(1.8 0.6 0.5)
(1.8 0.6 1)
(1.8 0.6 1.5)
(1.8 0.6 2)
(1.8 0.6 2.5)
(1.8 0.6 3)
(1.8 0.6 3.5)
(1.8 0.6 4)
(1.8 0.6 4.5)
(1.8 0.6 5)
(0.6 1.4 3)
(1 1.4 3)
(1.4 1.4 3)
(1.8 1.4 3)
(0.6 1.4 3.5)
(1 1.4 3.5)
(1.4 1.4 3.5)
(1.8 1.4 3.5)
(0.6 1.4 4)
(1 1.4 4)
(1.4 1.4 4)
(1.8 1.4 4)
(0.6 1.4 4.5)
(1 1.4 4.5)
(1.4 1.4 4.5)
(1.8 1.4 4.5)
(0.6 1.4 5)
(1 1.4 5)
(1.4 1.4 5)
(1.8 1.4 5)
(-0.2 1.4 5)
(-0.2 1.4 4.5)
(-0.2 1.4 4)
(-0.2 1.4 3.5)
(-0.2 1.4 3)
(-0.2 -3.8 3.5)
(-0.2 -3.8 4)
(-0.2 -3.4 4)
(-0.2 -3.4 3.5)
(-0.2 -4.2 3.5)
(-0.2 -4.2 4)
(-0.2 -3.8 3)
(-0.2 -4.2 3)
(-0.2 -3.4 3)
(-0.2 -3 3.5)
(-0.2 -3 3)
(-0.2 -3 4)
(-0.2 -3.4 4.5)
(-0.2 -3 4.5)
(-0.2 -3.8 4.5)
(-0.2 -4.2 4.5)
(-0.2 -4.6 4)
(-0.2 -4.6 4.5)
(-0.2 -4.6 3.5)
(-0.2 -4.6 3)
(-0.2 -4.2 2.5)
(-0.2 -4.6 2.5)
(-0.2 -3.8 2.5)
(-0.2 -3.4 2.5)
(-0.2 -3 2.5)
(-0.2 -2.6 3)
(-0.2 -2.6 2.5)
(-0.2 -2.6 3.5)
(-0.2 -2.6 4)
(-0.2 -2.6 4.5)
(-0.2 -3 5)
(-0.2 -2.6 5)
(-0.2 -3.4 5)
(-0.2 -3.8 5)
(-0.2 -4.2 5)
(-0.2 -4.6 5)
(-0.2 -5 4.5)
(-0.2 -5 5)
(-0.2 -5 4)
(-0.2 -5 3.5)
(-0.2 -5 3)
(-0.2 -5 2.5)
(-0.2 -4.6 2)
(-0.2 -5 2)
(-0.2 -4.2 2)
(-0.2 -3.8 2)
(-0.2 -3.4 2)
(-0.2 -3 2)
(-0.2 -2.6 2)
(-0.2 -2.2 2.5)
(-0.2 -2.2 2)
(-0.2 -2.2 3)
(-0.2 -2.2 3.5)
(-0.2 -2.2 4)
(-0.2 -2.2 4.5)
(-0.2 -2.2 5)
(-0.2 -1.8 5)
(-0.2 -1.8 4.5)
(-0.2 -1.4 5)
(-0.2 -1.4 4.5)
(-0.2 -1 5)
(-0.2 -1 4.5)
(-0.2 -0.6 5)
(-0.2 -0.6 4.5)
(-0.2 -0.2 5)
(-0.2 -0.2 4.5)
(-0.2 0.2 5)
(-0.2 0.2 4.5)
(-0.2 0.6 5)
(-0.2 0.6 4.5)
(-0.2 1 1.5)
(-0.2 1 2)
(-0.2 1 1)
(-0.2 1 0.5)
(-0.2 1 0)
(-0.2 0.6 0)
(-0.2 0.6 0.5)
(-0.2 0.2 0)
(-0.2 0.2 0.5)
(-0.2 -0.2 0)
(-0.2 -0.2 0.5)
(-0.2 -0.6 0)
(-0.2 -0.6 0.5)
(-0.2 -1 0)
(-0.2 -1 0.5)
(-0.2 -1.4 0)
(-0.2 -1.4 0.5)
(-0.2 -1.8 0)
(-0.2 -1.8 0.5)
(-0.2 -2.2 0)
(-0.2 -2.2 0.5)
(-0.2 -2.6 0)
(-0.2 -2.6 0.5)
(-0.2 -3 0)
(-0.2 -3 0.5)
(-0.2 -3.4 0)
(-0.2 -3.4 0.5)
(-0.2 -3.8 0)
(-0.2 -3.8 0.5)
(-0.2 -4.2 0)
(-0.2 -4.2 0.5)
(-0.2 -4.6 0)
(-0.2 -4.6 0.5)
(-0.2 -5 0)
(-0.2 -5 0.5)
(-0.2 -5 1)
(-0.2 -4.6 1)
(-0.2 -5 1.5)
(-0.2 -4.6 1.5)
(-0.2 -4.2 1.5)
(-0.2 -3.8 1.5)
(-0.2 -3.4 1.5)
(-0.2 -3 1.5)
(-0.2 -2.6 1.5)
(-0.2 -2.2 1.5)
(-0.2 -1.8 2)
(-0.2 -1.8 1.5)
(-0.2 -1.8 2.5)
(-0.2 -1.8 3)
(-0.2 -1.8 3.5)
(-0.2 -1.8 4)
(-0.2 -1.4 4)
(-0.2 -1 4)
(-0.2 -0.6 4)
(-0.2 -0.2 4)
(-0.2 0.2 4)
(-0.2 0.6 4)
(-0.2 1 2.5)
(-0.2 0.6 2.5)
(-0.2 0.6 3)
(-0.2 0.6 2)
(-0.2 0.6 1.5)
(-0.2 0.6 1)
(-0.2 0.2 1)
(-0.2 -0.2 1)
(-0.2 -0.6 1)
(-0.2 -1 1)
(-0.2 -1.4 1)
(-0.2 -1.8 1)
(-0.2 -2.2 1)
(-0.2 -2.6 1)
(-0.2 -3 1)
(-0.2 -3.4 1)
(-0.2 -3.8 1)
(-0.2 -4.2 1)
(-0.2 -1.4 1.5)
(-0.2 -1.4 2)
(-0.2 -1.4 2.5)
(-0.2 -1.4 3)
(-0.2 -1.4 3.5)
(-0.2 -1 3.5)
(-0.2 -0.6 3.5)
(-0.2 -0.2 3.5)
(-0.2 0.2 3.5)
(-0.2 0.6 3.5)
(-0.2 0.2 3)
(-0.2 0.2 2.5)
(-0.2 0.2 2)
(-0.2 0.2 1.5)
(-0.2 -0.2 1.5)
(-0.2 -0.6 1.5)
(-0.2 -1 1.5)
(-0.2 -1 2)
(-0.2 -1 2.5)
(-0.2 -1 3)
(-0.2 -0.6 3)
(-0.2 -0.2 3)
(-0.2 -0.2 2.5)
(-0.2 -0.2 2)
(-0.2 -0.6 2)
(-0.2 -0.6 2.5)
(0.6 1 0)
(0.6 1 0.5)
(0.6 1 1)
(0.2 1 0)
(0.2 1 0.5)
(0.2 1 1)
(0.2 1 1.5)
(0.2 1 2)
(0.2 1 2.5)
(0.2 0.2 4)
(0.2 0.2 4.5)
(0.2 0.2 3.5)
(0.2 0.2 3)
(0.2 0.2 2.5)
(0.2 0.2 5)
(0.2 0.2 2)
(0.2 0.6 2)
(1 -0.6 3.5)
(1 -0.6 4)
(1.4 -0.6 4)
(1.4 -0.6 3.5)
(0.6 -0.6 3.5)
(0.6 -0.6 4)
(1 -0.6 3)
(0.6 -0.6 3)
(1.4 -0.6 3)
(1.8 -0.6 3.5)
(1.8 -0.6 3)
(1.8 -0.6 4)
(1.4 -0.6 4.5)
(1.8 -0.6 4.5)
(1 -0.6 4.5)
(0.6 -0.6 4.5)
(0.2 -0.6 4)
(0.2 -0.6 4.5)
(0.2 -0.6 3.5)
(0.2 -0.6 3)
(0.6 -0.6 2.5)
(0.2 -0.6 2.5)
(1 -0.6 2.5)
(1.4 -0.6 2.5)
(1.8 -0.6 2.5)
(1.8 -0.6 5)
(1.4 -0.6 5)
(1 -0.6 5)
(0.6 -0.6 5)
(0.2 -0.6 5)
(0.2 -0.6 2)
(0.6 -0.6 2)
(1 -0.6 2)
(1.4 -0.6 2)
(1.8 -0.6 2)
(1.8 -0.6 0)
(1.8 -0.6 0.5)
(1.4 -0.6 0)
(1.4 -0.6 0.5)
(1 -0.6 0)
(1 -0.6 0.5)
(0.6 -0.6 0)
(0.6 -0.6 0.5)
(0.2 -0.6 0)
(0.2 -0.6 0.5)
(0.2 -0.6 1)
(0.2 -0.6 1.5)
(0.6 -0.6 1.5)
(1 -0.6 1.5)
(1.4 -0.6 1.5)
(1.8 -0.6 1.5)
(1.8 -0.6 1)
(1.4 -0.6 1)
(1 -0.6 1)
(0.6 -0.6 1)
(1 -3.8 3.5)
(1 -3.8 4)
(1 -3.4 4)
(1 -3.4 3.5)
(1 -4.2 3.5)
(1 -4.2 4)
(1 -3.8 3)
(1 -4.2 3)
(1 -3.4 3)
(1 -3 3.5)
(1 -3 3)
(1 -3 4)
(1 -3.4 4.5)
(1 -3 4.5)
(1 -3.8 4.5)
(1 -4.2 4.5)
(1 -4.6 4)
(1 -4.6 4.5)
(1 -4.6 3.5)
(1 -4.6 3)
(1 -4.2 2.5)
(1 -4.6 2.5)
(1 -3.8 2.5)
(1 -3.4 2.5)
(1 -3 2.5)
(1 -2.6 3)
(1 -2.6 2.5)
(1 -2.6 3.5)
(1 -2.6 4)
(1 -2.6 4.5)
(1 -3 5)
(1 -2.6 5)
(1 -3.4 5)
(1 -3.8 5)
(1 -4.2 5)
(1 -4.6 5)
(1 -5 4.5)
(1 -5 5)
(1 -5 4)
(1 -5 3.5)
(1 -5 3)
(1 -5 2.5)
(1 -4.6 2)
(1 -5 2)
(1 -4.2 2)
(1 -3.8 2)
(1 -3.4 2)
(1 -3 2)
(1 -2.6 2)
(1 -2.2 2.5)
(1 -2.2 2)
(1 -2.2 3)
(1 -2.2 3.5)
(1 -2.2 4)
(1 -2.2 4.5)
(1 -2.2 5)
(1 -1.8 5)
(1 -1.8 4.5)
(1 -1.4 5)
(1 -1.4 4.5)
(1 -1 5)
(1 -1 4.5)
(1 -1 4)
(1 -1.4 4)
(1 -1 3.5)
(1 -1.4 3.5)
(1 -1 3)
(1 -1.4 3)
(1 -1 2.5)
(1 -1.4 2.5)
(1 -1.8 2.5)
(1 -1.8 3)
(1 -1.4 2)
(1 -1.8 2)
(1 -1.4 1.5)
(1 -1.8 1.5)
(1 -1.4 1)
(1 -1.8 1)
(1 -1.4 0.5)
(1 -1.8 0.5)
(1 -1.4 0)
(1 -1.8 0)
(1 -2.2 0)
(1 -2.2 0.5)
(1 -2.6 0)
(1 -2.6 0.5)
(1 -3 0)
(1 -3 0.5)
(1 -3.4 0)
(1 -3.4 0.5)
(1 -3.8 0)
(1 -3.8 0.5)
(1 -4.2 0)
(1 -4.2 0.5)
(1 -4.6 0)
(1 -4.6 0.5)
(1 -5 0)
(1 -5 0.5)
(1 -5 1)
(1 -4.6 1)
(1 -5 1.5)
(1 -4.6 1.5)
(1 -4.2 1.5)
(1 -3.8 1.5)
(1 -3.4 1.5)
(1 -3 1.5)
(1 -2.6 1.5)
(1 -2.2 1.5)
(1 -1.8 3.5)
(1 -1.8 4)
(1 -2.2 1)
(1 -2.6 1)
(1 -3 1)
(1 -3.4 1)
(1 -3.8 1)
(1 -4.2 1)
(1 -1 0)
(1 -1 0.5)
(1 -1 1)
(1 -1 1.5)
(1 -1 2)
(1.4 -1 4)
(1.4 -1 3.5)
(1.4 -1 4.5)
(1.4 -1 5)
(1.8 -1 5)
(1.8 -1 4.5)
(2.2 -1 5)
(2.2 -1 4.5)
(2.6 -1.4 0)
(2.6 -1.4 0.5)
(2.2 -1.4 0)
(2.2 -1.4 0.5)
(1.8 -1.4 0)
(1.8 -1.4 0.5)
(1.4 -1.4 0)
(1.4 -1.4 0.5)
(1.4 -1.4 1)
(1.4 -1.4 1.5)
(1.4 -1.4 2)
(1.4 -1.4 2.5)
(1.4 -1 2.5)
(1.4 -1 3)
(1.8 -1 3.5)
(1.8 -1 3)
(1.8 -1 4)
(2.2 -1 4)
(2.6 -1.4 1)
(2.2 -1.4 1)
(1.8 -1.4 1)
(1.8 -1.4 1.5)
(1.8 -1.4 2)
(1.8 -1.4 2.5)
(1.8 -1 2.5)
(2.2 -1 3)
(2.2 -1 2.5)
(2.2 -1 3.5)
(2.6 -1.4 1.5)
(2.2 -1.4 1.5)
(2.2 -1.4 2)
(2.2 -1.4 2.5)
(2.6 -1.4 2.5)
(2.6 -1.4 2)
(2.6 -1.4 3)
(2.6 -1.4 3.5)
(2.6 -1.8 3)
(2.6 -1.8 2.5)
(2.6 -1.8 3.5)
(2.6 -1.4 4)
(2.6 -1.8 4)
(2.6 -1.8 2)
(2.6 -2.2 2.5)
(2.6 -2.2 2)
(2.6 -2.2 3)
(2.6 -2.2 3.5)
(2.6 -2.2 4)
(2.6 -1.8 4.5)
(2.6 -2.2 4.5)
(2.6 -1.4 4.5)
(2.6 -1.8 1.5)
(2.6 -2.2 1.5)
(2.2 -2.2 2)
(2.2 -2.2 1.5)
(2.2 -2.2 2.5)
(2.6 -2.6 2.5)
(2.2 -2.6 2.5)
(2.6 -2.6 3)
(2.6 -2.6 3.5)
(2.6 -2.6 4)
(2.6 -2.6 4.5)
(2.6 -2.2 5)
(2.6 -2.6 5)
(2.6 -1.8 5)
(2.6 -1.4 5)
(2.2 -2.6 5)
(2.2 -2.6 4.5)
(2.2 -3 5)
(2.2 -3 4.5)
(2.2 -3.4 5)
(2.2 -3.4 4.5)
(2.2 -3.8 5)
(2.2 -3.8 4.5)
(2.2 -4.2 5)
(2.2 -4.2 4.5)
(2.2 -4.6 5)
(2.2 -4.6 4.5)
(2.2 -5 5)
(2.2 -5 4.5)
(2.2 -5 4)
(2.2 -4.6 4)
(2.2 -5 3.5)
(2.2 -4.6 3.5)
(2.2 -5 3)
(2.2 -4.6 3)
(2.2 -5 2.5)
(2.2 -4.6 2.5)
(2.2 -5 2)
(2.2 -4.6 2)
(2.2 -5 1.5)
(2.2 -4.6 1.5)
(2.2 -5 1)
(2.2 -4.6 1)
(2.2 -5 0.5)
(2.2 -4.6 0.5)
(2.2 -5 0)
(2.2 -4.6 0)
(2.2 -4.2 0)
(2.2 -4.2 0.5)
(2.2 -3.8 0)
(2.2 -3.8 0.5)
(2.2 -3.4 0)
(2.2 -3.4 0.5)
(2.2 -3 0)
(2.2 -3 0.5)
(2.2 -2.6 0)
(2.2 -2.6 0.5)
(2.2 -2.2 0)
(2.2 -2.2 0.5)
(2.6 -2.2 0)
(2.6 -2.2 0.5)
(2.6 -1.8 0)
(2.6 -1.8 0.5)
(2.6 -1.8 1)
(2.6 -2.2 1)
(2.2 -2.2 1)
(2.2 -2.6 1.5)
(2.2 -2.6 1)
(2.2 -2.6 2)
(2.2 -3 2.5)
(2.2 -3 2)
(2.2 -2.6 3)
(2.2 -3 3)
(2.2 -2.6 3.5)
(2.2 -2.6 4)
(2.2 -3 4)
(2.2 -3.4 4)
(2.2 -3.8 4)
(2.2 -4.2 4)
(2.2 -4.2 3.5)
(2.2 -4.2 3)
(2.2 -4.2 2.5)
(2.2 -4.2 2)
(2.2 -4.2 1.5)
(2.2 -4.2 1)
(2.2 -3.8 1)
(2.2 -3.4 1)
(2.2 -3 1)
(2.2 -3 1.5)
(2.2 -3.4 2)
(2.2 -3.4 1.5)
(2.2 -3.4 2.5)
(2.2 -3.4 3)
(2.2 -3 3.5)
(2.2 -3.4 3.5)
(2.2 -3.8 3.5)
(2.2 -3.8 3)
(2.2 -3.8 2.5)
(2.2 -3.8 2)
(2.2 -3.8 1.5)
(1.4 -5 0)
(1.8 -5 0)
(1.4 -4.6 0)
(1.8 -4.6 0)
(1.4 -4.2 0)
(1.8 -4.2 0)
(1.4 -3.8 0)
(1.8 -3.8 0)
(1.4 -3.4 0)
(1.8 -3.4 0)
(1.4 -3 0)
(1.8 -3 0)
(1.4 -2.6 0)
(1.8 -2.6 0)
(1.4 -2.2 0)
(1.8 -2.2 0)
(1.4 -1.8 0)
(1.8 -1.8 0)
(2.2 -1.8 0)
(1.4 -5 0.5)
(1.8 -5 0.5)
(1.4 -4.6 0.5)
(1.8 -4.6 0.5)
(1.4 -4.2 0.5)
(1.8 -4.2 0.5)
(1.4 -3.8 0.5)
(1.8 -3.8 0.5)
(1.4 -3.4 0.5)
(1.8 -3.4 0.5)
(1.4 -3 0.5)
(1.8 -3 0.5)
(1.4 -2.6 0.5)
(1.8 -2.6 0.5)
(1.4 -2.2 0.5)
(1.8 -2.2 0.5)
(1.4 -1.8 0.5)
(1.8 -1.8 0.5)
(2.2 -1.8 0.5)
(1.4 -5 1)
(1.8 -5 1)
(1.4 -4.6 1)
(1.8 -4.6 1)
(1.4 -4.2 1)
(1.8 -4.2 1)
(1.4 -3.8 1)
(1.8 -3.8 1)
(1.4 -3.4 1)
(1.8 -3.4 1)
(1.4 -3 1)
(1.8 -3 1)
(1.4 -2.6 1)
(1.8 -2.6 1)
(1.4 -2.2 1)
(1.8 -2.2 1)
(1.4 -1.8 1)
(1.8 -1.8 1)
(2.2 -1.8 1)
(1.4 -5 1.5)
(1.8 -5 1.5)
(1.4 -4.6 1.5)
(1.8 -4.6 1.5)
(1.4 -4.2 1.5)
(1.8 -4.2 1.5)
(1.4 -3.8 1.5)
(1.8 -3.8 1.5)
(1.4 -3.4 1.5)
(1.8 -3.4 1.5)
(1.4 -3 1.5)
(1.8 -3 1.5)
(1.4 -2.6 1.5)
(1.8 -2.6 1.5)
(1.4 -2.2 1.5)
(1.8 -2.2 1.5)
(1.4 -1.8 1.5)
(1.8 -1.8 1.5)
(2.2 -1.8 1.5)
(1.4 -5 2)
(1.8 -5 2)
(1.4 -4.6 2)
(1.8 -4.6 2)
(1.4 -4.2 2)
(1.8 -4.2 2)
(1.4 -3.8 2)
(1.8 -3.8 2)
(1.4 -3.4 2)
(1.8 -3.4 2)
(1.4 -3 2)
(1.8 -3 2)
(1.4 -2.6 2)
(1.8 -2.6 2)
(1.4 -2.2 2)
(1.8 -2.2 2)
(1.4 -1.8 2)
(1.8 -1.8 2)
(2.2 -1.8 2)
(1.4 -5 2.5)
(1.8 -5 2.5)
(1.4 -4.6 2.5)
(1.8 -4.6 2.5)
(1.4 -4.2 2.5)
(1.8 -4.2 2.5)
(1.4 -3.8 2.5)
(1.8 -3.8 2.5)
(1.4 -3.4 2.5)
(1.8 -3.4 2.5)
(1.4 -3 2.5)
(1.8 -3 2.5)
(1.4 -2.6 2.5)
(1.8 -2.6 2.5)
(1.4 -2.2 2.5)
(1.8 -2.2 2.5)
(1.4 -1.8 2.5)
(1.8 -1.8 2.5)
(2.2 -1.8 2.5)
(1.4 -5 3)
(1.8 -5 3)
(1.4 -4.6 3)
(1.8 -4.6 3)
(1.4 -4.2 3)
(1.8 -4.2 3)
(1.4 -3.8 3)
(1.8 -3.8 3)
(1.4 -3.4 3)
(1.8 -3.4 3)
(1.4 -3 3)
(1.8 -3 3)
(1.4 -2.6 3)
(1.8 -2.6 3)
(1.4 -2.2 3)
(1.8 -2.2 3)
(2.2 -2.2 3)
(1.4 -1.8 3)
(1.8 -1.8 3)
(2.2 -1.8 3)
(1.4 -1.4 3)
(1.8 -1.4 3)
(2.2 -1.4 3)
(1.4 -5 3.5)
(1.8 -5 3.5)
(1.4 -4.6 3.5)
(1.8 -4.6 3.5)
(1.4 -4.2 3.5)
(1.8 -4.2 3.5)
(1.4 -3.8 3.5)
(1.8 -3.8 3.5)
(1.4 -3.4 3.5)
(1.8 -3.4 3.5)
(1.4 -3 3.5)
(1.8 -3 3.5)
(1.4 -2.6 3.5)
(1.8 -2.6 3.5)
(1.4 -2.2 3.5)
(1.8 -2.2 3.5)
(2.2 -2.2 3.5)
(1.4 -1.8 3.5)
(1.8 -1.8 3.5)
(2.2 -1.8 3.5)
(1.4 -1.4 3.5)
(1.8 -1.4 3.5)
(2.2 -1.4 3.5)
(1.4 -5 4)
(1.8 -5 4)
(1.4 -4.6 4)
(1.8 -4.6 4)
(1.4 -4.2 4)
(1.8 -4.2 4)
(1.4 -3.8 4)
(1.8 -3.8 4)
(1.4 -3.4 4)
(1.8 -3.4 4)
(1.4 -3 4)
(1.8 -3 4)
(1.4 -2.6 4)
(1.8 -2.6 4)
(1.4 -2.2 4)
(1.8 -2.2 4)
(2.2 -2.2 4)
(1.4 -1.8 4)
(1.8 -1.8 4)
(2.2 -1.8 4)
(1.4 -1.4 4)
(1.8 -1.4 4)
(2.2 -1.4 4)
(1.4 -5 4.5)
(1.8 -5 4.5)
(1.4 -4.6 4.5)
(1.8 -4.6 4.5)
(1.4 -4.2 4.5)
(1.8 -4.2 4.5)
(1.4 -3.8 4.5)
(1.8 -3.8 4.5)
(1.4 -3.4 4.5)
(1.8 -3.4 4.5)
(1.4 -3 4.5)
(1.8 -3 4.5)
(1.4 -2.6 4.5)
(1.8 -2.6 4.5)
(1.4 -2.2 4.5)
(1.8 -2.2 4.5)
(2.2 -2.2 4.5)
(1.4 -1.8 4.5)
(1.8 -1.8 4.5)
(2.2 -1.8 4.5)
(1.4 -1.4 4.5)
(1.8 -1.4 4.5)
(2.2 -1.4 4.5)
(1.4 -5 5)
(1.8 -5 5)
(1.4 -4.6 5)
(1.8 -4.6 5)
(1.4 -4.2 5)
(1.8 -4.2 5)
(1.4 -3.8 5)
(1.8 -3.8 5)
(1.4 -3.4 5)
(1.8 -3.4 5)
(1.4 -3 5)
(1.8 -3 5)
(1.4 -2.6 5)
(1.8 -2.6 5)
(1.4 -2.2 5)
(1.8 -2.2 5)
(2.2 -2.2 5)
(1.4 -1.8 5)
(1.8 -1.8 5)
(2.2 -1.8 5)
(1.4 -1.4 5)
(1.8 -1.4 5)
(2.2 -1.4 5)
(2.6 -5 0)
(3 -5 0)
(3.4 -5 0)
(2.6 -4.6 0)
(3 -4.6 0)
(3.4 -4.6 0)
(2.6 -4.2 0)
(3 -4.2 0)
(3.4 -4.2 0)
(2.6 -3.8 0)
(3 -3.8 0)
(3.4 -3.8 0)
(2.6 -3.4 0)
(3 -3.4 0)
(2.6 -3 0)
(3 -3 0)
(2.6 -2.6 0)
(3 -2.6 0)
(3 -2.2 0)
(3 -1.8 0)
(2.6 -5 0.5)
(3 -5 0.5)
(3.4 -5 0.5)
(2.6 -4.6 0.5)
(3 -4.6 0.5)
(3.4 -4.6 0.5)
(2.6 -4.2 0.5)
(3 -4.2 0.5)
(3.4 -4.2 0.5)
(2.6 -3.8 0.5)
(3 -3.8 0.5)
(3.4 -3.8 0.5)
(2.6 -3.4 0.5)
(3 -3.4 0.5)
(2.6 -3 0.5)
(3 -3 0.5)
(2.6 -2.6 0.5)
(3 -2.6 0.5)
(3 -2.2 0.5)
(3 -1.8 0.5)
(2.6 -5 1)
(3 -5 1)
(3.4 -5 1)
(2.6 -4.6 1)
(3 -4.6 1)
(3.4 -4.6 1)
(2.6 -4.2 1)
(3 -4.2 1)
(3.4 -4.2 1)
(2.6 -3.8 1)
(3 -3.8 1)
(3.4 -3.8 1)
(2.6 -3.4 1)
(3 -3.4 1)
(3.4 -3.4 1)
(2.6 -3 1)
(3 -3 1)
(2.6 -2.6 1)
(3 -2.6 1)
(3 -2.2 1)
(3 -1.8 1)
(2.6 -5 1.5)
(3 -5 1.5)
(3.4 -5 1.5)
(2.6 -4.6 1.5)
(3 -4.6 1.5)
(3.4 -4.6 1.5)
(2.6 -4.2 1.5)
(3 -4.2 1.5)
(3.4 -4.2 1.5)
(2.6 -3.8 1.5)
(3 -3.8 1.5)
(3.4 -3.8 1.5)
(2.6 -3.4 1.5)
(3 -3.4 1.5)
(3.4 -3.4 1.5)
(2.6 -3 1.5)
(3 -3 1.5)
(2.6 -2.6 1.5)
(3 -2.6 1.5)
(3 -2.2 1.5)
(3 -1.8 1.5)
(2.6 -5 2)
(3 -5 2)
(3.4 -5 2)
(3.8 -5 2)
(4.2 -5 2)
(4.6 -5 2)
(5 -5 2)
(2.6 -4.6 2)
(3 -4.6 2)
(3.4 -4.6 2)
(3.8 -4.6 2)
(4.2 -4.6 2)
(4.6 -4.6 2)
(5 -4.6 2)
(2.6 -4.2 2)
(3 -4.2 2)
(3.4 -4.2 2)
(3.8 -4.2 2)
(4.2 -4.2 2)
(4.6 -4.2 2)
(5 -4.2 2)
(2.6 -3.8 2)
(3 -3.8 2)
(3.4 -3.8 2)
(3.8 -3.8 2)
(4.2 -3.8 2)
(4.6 -3.8 2)
(5 -3.8 2)
(2.6 -3.4 2)
(3 -3.4 2)
(3.4 -3.4 2)
(2.6 -3 2)
(3 -3 2)
(2.6 -2.6 2)
(3 -2.6 2)
(3 -2.2 2)
(3 -1.8 2)
(2.6 -5 2.5)
(3 -5 2.5)
(3.4 -5 2.5)
(3.8 -5 2.5)
(4.2 -5 2.5)
(4.6 -5 2.5)
(5 -5 2.5)
(2.6 -4.6 2.5)
(3 -4.6 2.5)
(3.4 -4.6 2.5)
(3.8 -4.6 2.5)
(4.2 -4.6 2.5)
(4.6 -4.6 2.5)
(5 -4.6 2.5)
(2.6 -4.2 2.5)
(3 -4.2 2.5)
(3.4 -4.2 2.5)
(3.8 -4.2 2.5)
(4.2 -4.2 2.5)
(4.6 -4.2 2.5)
(5 -4.2 2.5)
(2.6 -3.8 2.5)
(3 -3.8 2.5)
(3.4 -3.8 2.5)
(3.8 -3.8 2.5)
(4.2 -3.8 2.5)
(4.6 -3.8 2.5)
(5 -3.8 2.5)
(2.6 -3.4 2.5)
(3 -3.4 2.5)
(3.4 -3.4 2.5)
(2.6 -3 2.5)
(3 -3 2.5)
(3 -2.6 2.5)
(3 -2.2 2.5)
(3 -1.8 2.5)
(2.6 -5 3)
(3 -5 3)
(3.4 -5 3)
(3.8 -5 3)
(4.2 -5 3)
(4.6 -5 3)
(5 -5 3)
(2.6 -4.6 3)
(3 -4.6 3)
(3.4 -4.6 3)
(3.8 -4.6 3)
(4.2 -4.6 3)
(4.6 -4.6 3)
(5 -4.6 3)
(2.6 -4.2 3)
(3 -4.2 3)
(3.4 -4.2 3)
(3.8 -4.2 3)
(4.2 -4.2 3)
(4.6 -4.2 3)
(5 -4.2 3)
(2.6 -3.8 3)
(3 -3.8 3)
(3.4 -3.8 3)
(3.8 -3.8 3)
(4.2 -3.8 3)
(4.6 -3.8 3)
(5 -3.8 3)
(2.6 -3.4 3)
(3 -3.4 3)
(3.4 -3.4 3)
(2.6 -3 3)
(3 -3 3)
(3 -2.6 3)
(3 -2.2 3)
(3 -1.8 3)
(2.6 -5 3.5)
(3 -5 3.5)
(3.4 -5 3.5)
(3.8 -5 3.5)
(4.2 -5 3.5)
(4.6 -5 3.5)
(5 -5 3.5)
(2.6 -4.6 3.5)
(3 -4.6 3.5)
(3.4 -4.6 3.5)
(3.8 -4.6 3.5)
(4.2 -4.6 3.5)
(4.6 -4.6 3.5)
(5 -4.6 3.5)
(2.6 -4.2 3.5)
(3 -4.2 3.5)
(3.4 -4.2 3.5)
(3.8 -4.2 3.5)
(4.2 -4.2 3.5)
(4.6 -4.2 3.5)
(5 -4.2 3.5)
(2.6 -3.8 3.5)
(3 -3.8 3.5)
(3.4 -3.8 3.5)
(3.8 -3.8 3.5)
(4.2 -3.8 3.5)
(4.6 -3.8 3.5)
(5 -3.8 3.5)
(2.6 -3.4 3.5)
(3 -3.4 3.5)
(3.4 -3.4 3.5)
(3.8 -3.4 3.5)
(4.2 -3.4 3.5)
(4.6 -3.4 3.5)
(5 -3.4 3.5)
(2.6 -3 3.5)
(3 -3 3.5)
(3.4 -3 3.5)
(3.8 -3 3.5)
(3 -2.6 3.5)
(3 -2.2 3.5)
(3 -1.8 3.5)
(2.6 -5 4)
(3 -5 4)
(3.4 -5 4)
(3.8 -5 4)
(4.2 -5 4)
(4.6 -5 4)
(5 -5 4)
(2.6 -4.6 4)
(3 -4.6 4)
(3.4 -4.6 4)
(3.8 -4.6 4)
(4.2 -4.6 4)
(4.6 -4.6 4)
(5 -4.6 4)
(2.6 -4.2 4)
(3 -4.2 4)
(3.4 -4.2 4)
(3.8 -4.2 4)
(4.2 -4.2 4)
(4.6 -4.2 4)
(5 -4.2 4)
(2.6 -3.8 4)
(3 -3.8 4)
(3.4 -3.8 4)
(3.8 -3.8 4)
(4.2 -3.8 4)
(4.6 -3.8 4)
(5 -3.8 4)
(2.6 -3.4 4)
(3 -3.4 4)
(3.4 -3.4 4)
(3.8 -3.4 4)
(4.2 -3.4 4)
(4.6 -3.4 4)
(5 -3.4 4)
(2.6 -3 4)
(3 -3 4)
(3.4 -3 4)
(3.8 -3 4)
(4.2 -3 4)
(4.6 -3 4)
(5 -3 4)
(3 -2.6 4)
(3 -2.2 4)
(3 -1.8 4)
(2.6 -5 4.5)
(3 -5 4.5)
(3.4 -5 4.5)
(3.8 -5 4.5)
(4.2 -5 4.5)
(4.6 -5 4.5)
(5 -5 4.5)
(2.6 -4.6 4.5)
(3 -4.6 4.5)
(3.4 -4.6 4.5)
(3.8 -4.6 4.5)
(4.2 -4.6 4.5)
(4.6 -4.6 4.5)
(5 -4.6 4.5)
(2.6 -4.2 4.5)
(3 -4.2 4.5)
(3.4 -4.2 4.5)
(3.8 -4.2 4.5)
(4.2 -4.2 4.5)
(4.6 -4.2 4.5)
(5 -4.2 4.5)
(2.6 -3.8 4.5)
(3 -3.8 4.5)
(3.4 -3.8 4.5)
(3.8 -3.8 4.5)
(4.2 -3.8 4.5)
(4.6 -3.8 4.5)
(5 -3.8 4.5)
(2.6 -3.4 4.5)
(3 -3.4 4.5)
(3.4 -3.4 4.5)
(3.8 -3.4 4.5)
(4.2 -3.4 4.5)
(4.6 -3.4 4.5)
(5 -3.4 4.5)
(2.6 -3 4.5)
(3 -3 4.5)
(3.4 -3 4.5)
(3.8 -3 4.5)
(4.2 -3 4.5)
(4.6 -3 4.5)
(5 -3 4.5)
(3 -2.6 4.5)
(3 -2.2 4.5)
(3 -1.8 4.5)
(2.6 -5 5)
(3 -5 5)
(3.4 -5 5)
(3.8 -5 5)
(4.2 -5 5)
(4.6 -5 5)
(5 -5 5)
(2.6 -4.6 5)
(3 -4.6 5)
(3.4 -4.6 5)
(3.8 -4.6 5)
(4.2 -4.6 5)
(4.6 -4.6 5)
(5 -4.6 5)
(2.6 -4.2 5)
(3 -4.2 5)
(3.4 -4.2 5)
(3.8 -4.2 5)
(4.2 -4.2 5)
(4.6 -4.2 5)
(5 -4.2 5)
(2.6 -3.8 5)
(3 -3.8 5)
(3.4 -3.8 5)
(3.8 -3.8 5)
(4.2 -3.8 5)
(4.6 -3.8 5)
(5 -3.8 5)
(2.6 -3.4 5)
(3 -3.4 5)
(3.4 -3.4 5)
(3.8 -3.4 5)
(4.2 -3.4 5)
(4.6 -3.4 5)
(5 -3.4 5)
(2.6 -3 5)
(3 -3 5)
(3.4 -3 5)
(3.8 -3 5)
(4.2 -3 5)
(4.6 -3 5)
(5 -3 5)
(3 -2.6 5)
(3 -2.2 5)
(3 -1.8 5)
(1.4 -1 0)
(1.8 -1 0)
(2.2 -1 0)
(1.4 -1 0.5)
(1.8 -1 0.5)
(2.2 -1 0.5)
(1.4 -1 1)
(1.8 -1 1)
(2.2 -1 1)
(1.4 -1 1.5)
(1.8 -1 1.5)
(2.2 -1 1.5)
(1.4 -1 2)
(1.8 -1 2)
(2.2 -1 2)
(0.2 -5 0)
(0.6 -5 0)
(0.2 -4.6 0)
(0.6 -4.6 0)
(0.2 -4.2 0)
(0.6 -4.2 0)
(0.2 -3.8 0)
(0.6 -3.8 0)
(0.2 -3.4 0)
(0.6 -3.4 0)
(0.2 -3 0)
(0.6 -3 0)
(0.2 -2.6 0)
(0.6 -2.6 0)
(0.2 -2.2 0)
(0.6 -2.2 0)
(0.2 -1.8 0)
(0.6 -1.8 0)
(0.2 -1.4 0)
(0.6 -1.4 0)
(0.2 -1 0)
(0.6 -1 0)
(0.2 -5 0.5)
(0.6 -5 0.5)
(0.2 -4.6 0.5)
(0.6 -4.6 0.5)
(0.2 -4.2 0.5)
(0.6 -4.2 0.5)
(0.2 -3.8 0.5)
(0.6 -3.8 0.5)
(0.2 -3.4 0.5)
(0.6 -3.4 0.5)
(0.2 -3 0.5)
(0.6 -3 0.5)
(0.2 -2.6 0.5)
(0.6 -2.6 0.5)
(0.2 -2.2 0.5)
(0.6 -2.2 0.5)
(0.2 -1.8 0.5)
(0.6 -1.8 0.5)
(0.2 -1.4 0.5)
(0.6 -1.4 0.5)
(0.2 -1 0.5)
(0.6 -1 0.5)
(0.2 -5 1)
(0.6 -5 1)
(0.2 -4.6 1)
(0.6 -4.6 1)
(0.2 -4.2 1)
(0.6 -4.2 1)
(0.2 -3.8 1)
(0.6 -3.8 1)
(0.2 -3.4 1)
(0.6 -3.4 1)
(0.2 -3 1)
(0.6 -3 1)
(0.2 -2.6 1)
(0.6 -2.6 1)
(0.2 -2.2 1)
(0.6 -2.2 1)
(0.2 -1.8 1)
(0.6 -1.8 1)
(0.2 -1.4 1)
(0.6 -1.4 1)
(0.2 -1 1)
(0.6 -1 1)
(0.2 -5 1.5)
(0.6 -5 1.5)
(0.2 -4.6 1.5)
(0.6 -4.6 1.5)
(0.2 -4.2 1.5)
(0.6 -4.2 1.5)
(0.2 -3.8 1.5)
(0.6 -3.8 1.5)
(0.2 -3.4 1.5)
(0.6 -3.4 1.5)
(0.2 -3 1.5)
(0.6 -3 1.5)
(0.2 -2.6 1.5)
(0.6 -2.6 1.5)
(0.2 -2.2 1.5)
(0.6 -2.2 1.5)
(0.2 -1.8 1.5)
(0.6 -1.8 1.5)
(0.2 -1.4 1.5)
(0.6 -1.4 1.5)
(0.2 -1 1.5)
(0.6 -1 1.5)
(0.2 -5 2)
(0.6 -5 2)
(0.2 -4.6 2)
(0.6 -4.6 2)
(0.2 -4.2 2)
(0.6 -4.2 2)
(0.2 -3.8 2)
(0.6 -3.8 2)
(0.2 -3.4 2)
(0.6 -3.4 2)
(0.2 -3 2)
(0.6 -3 2)
(0.2 -2.6 2)
(0.6 -2.6 2)
(0.2 -2.2 2)
(0.6 -2.2 2)
(0.2 -1.8 2)
(0.6 -1.8 2)
(0.2 -1.4 2)
(0.6 -1.4 2)
(0.2 -1 2)
(0.6 -1 2)
(0.2 -5 2.5)
(0.6 -5 2.5)
(0.2 -4.6 2.5)
(0.6 -4.6 2.5)
(0.2 -4.2 2.5)
(0.6 -4.2 2.5)
(0.2 -3.8 2.5)
(0.6 -3.8 2.5)
(0.2 -3.4 2.5)
(0.6 -3.4 2.5)
(0.2 -3 2.5)
(0.6 -3 2.5)
(0.2 -2.6 2.5)
(0.6 -2.6 2.5)
(0.2 -2.2 2.5)
(0.6 -2.2 2.5)
(0.2 -1.8 2.5)
(0.6 -1.8 2.5)
(0.2 -1.4 2.5)
(0.6 -1.4 2.5)
(0.2 -1 2.5)
(0.6 -1 2.5)
(0.2 -5 3)
(0.6 -5 3)
(0.2 -4.6 3)
(0.6 -4.6 3)
(0.2 -4.2 3)
(0.6 -4.2 3)
(0.2 -3.8 3)
(0.6 -3.8 3)
(0.2 -3.4 3)
(0.6 -3.4 3)
(0.2 -3 3)
(0.6 -3 3)
(0.2 -2.6 3)
(0.6 -2.6 3)
(0.2 -2.2 3)
(0.6 -2.2 3)
(0.2 -1.8 3)
(0.6 -1.8 3)
(0.2 -1.4 3)
(0.6 -1.4 3)
(0.2 -1 3)
(0.6 -1 3)
(0.2 -5 3.5)
(0.6 -5 3.5)
(0.2 -4.6 3.5)
(0.6 -4.6 3.5)
(0.2 -4.2 3.5)
(0.6 -4.2 3.5)
(0.2 -3.8 3.5)
(0.6 -3.8 3.5)
(0.2 -3.4 3.5)
(0.6 -3.4 3.5)
(0.2 -3 3.5)
(0.6 -3 3.5)
(0.2 -2.6 3.5)
(0.6 -2.6 3.5)
(0.2 -2.2 3.5)
(0.6 -2.2 3.5)
(0.2 -1.8 3.5)
(0.6 -1.8 3.5)
(0.2 -1.4 3.5)
(0.6 -1.4 3.5)
(0.2 -1 3.5)
(0.6 -1 3.5)
(0.2 -5 4)
(0.6 -5 4)
(0.2 -4.6 4)
(0.6 -4.6 4)
(0.2 -4.2 4)
(0.6 -4.2 4)
(0.2 -3.8 4)
(0.6 -3.8 4)
(0.2 -3.4 4)
(0.6 -3.4 4)
(0.2 -3 4)
(0.6 -3 4)
(0.2 -2.6 4)
(0.6 -2.6 4)
(0.2 -2.2 4)
(0.6 -2.2 4)
(0.2 -1.8 4)
(0.6 -1.8 4)
(0.2 -1.4 4)
(0.6 -1.4 4)
(0.2 -1 4)
(0.6 -1 4)
(0.2 -5 4.5)
(0.6 -5 4.5)
(0.2 -4.6 4.5)
(0.6 -4.6 4.5)
(0.2 -4.2 4.5)
(0.6 -4.2 4.5)
(0.2 -3.8 4.5)
(0.6 -3.8 4.5)
(0.2 -3.4 4.5)
(0.6 -3.4 4.5)
(0.2 -3 4.5)
(0.6 -3 4.5)
(0.2 -2.6 4.5)
(0.6 -2.6 4.5)
(0.2 -2.2 4.5)
(0.6 -2.2 4.5)
(0.2 -1.8 4.5)
(0.6 -1.8 4.5)
(0.2 -1.4 4.5)
(0.6 -1.4 4.5)
(0.2 -1 4.5)
(0.6 -1 4.5)
(0.2 -5 5)
(0.6 -5 5)
(0.2 -4.6 5)
(0.6 -4.6 5)
(0.2 -4.2 5)
(0.6 -4.2 5)
(0.2 -3.8 5)
(0.6 -3.8 5)
(0.2 -3.4 5)
(0.6 -3.4 5)
(0.2 -3 5)
(0.6 -3 5)
(0.2 -2.6 5)
(0.6 -2.6 5)
(0.2 -2.2 5)
(0.6 -2.2 5)
(0.2 -1.8 5)
(0.6 -1.8 5)
(0.2 -1.4 5)
(0.6 -1.4 5)
(0.2 -1 5)
(0.6 -1 5)
(0.6 -0.2 4.5)
(0.6 -0.2 5)
(0.2 -0.2 4.5)
(0.2 -0.2 5)
(0.2 -0.2 0.5)
(0.2 -0.2 0)
(0.6 -0.2 0.5)
(0.6 -0.2 0)
(0.6 -0.2 4)
(0.2 -0.2 4)
(0.2 -0.2 1)
(0.6 -0.2 1)
(0.6 -0.2 3)
(0.6 -0.2 3.5)
(0.2 -0.2 3.5)
(0.2 -0.2 1.5)
(0.6 -0.2 1.5)
(0.6 -0.2 2)
(0.6 -0.2 2.5)
(0.2 -0.2 2.5)
(0.2 -0.2 3)
(0.2 -0.2 2)
(0.2 0.6 0.5)
(0.2 0.6 0)
(0.2 0.2 0.5)
(0.2 0.2 0)
(0.2 0.6 1)
(0.2 0.2 1)
(0.2 0.6 1.5)
(0.2 0.2 1.5)
(0.6 0.2 0)
(0.6 0.6 0)
(0.6 0.2 0.5)
(0.6 0.6 0.5)
(0.6 0.2 1)
(0.6 0.6 1)
(0.2 0.6 4)
(0.2 0.6 3.5)
(0.2 0.6 3)
(0.2 0.6 4.5)
(0.2 0.6 2.5)
(0.2 0.6 5)
(-0.6 -5 0)
(-0.6 -4.6 0)
(-0.6 -4.2 0)
(-0.6 -3.8 0)
(-0.6 -3.4 0)
(-0.6 -3 0)
(-0.6 -2.6 0)
(-0.6 -5 0.5)
(-0.6 -4.6 0.5)
(-0.6 -4.2 0.5)
(-0.6 -3.8 0.5)
(-0.6 -3.4 0.5)
(-0.6 -3 0.5)
(-0.6 -2.6 0.5)
(-0.6 -5 1)
(-0.6 -4.6 1)
(-0.6 -4.2 1)
(-0.6 -3.8 1)
(-0.6 -3.4 1)
(-0.6 -3 1)
(-0.6 -2.6 1)
(-0.6 -5 1.5)
(-0.6 -4.6 1.5)
(-0.6 -4.2 1.5)
(-0.6 -3.8 1.5)
(-0.6 -3.4 1.5)
(-0.6 -3 1.5)
(-0.6 -2.6 1.5)
(-0.6 -5 2)
(-0.6 -4.6 2)
(-0.6 -4.2 2)
(-0.6 -3.8 2)
(-0.6 -3.4 2)
(-0.6 -3 2)
(-0.6 -2.6 2)
(-0.6 -5 2.5)
(-0.6 -4.6 2.5)
(-0.6 -4.2 2.5)
(-0.6 -3.8 2.5)
(-0.6 -3.4 2.5)
(-0.6 -3 2.5)
(-0.6 -2.6 2.5)
(-0.6 -5 3)
(-0.6 -4.6 3)
(-0.6 -4.2 3)
(-0.6 -3.8 3)
(-0.6 -3.4 3)
(-0.6 -3 3)
(-0.6 -2.6 3)
(-0.6 -5 3.5)
(-0.6 -4.6 3.5)
(-0.6 -4.2 3.5)
(-0.6 -3.8 3.5)
(-0.6 -3.4 3.5)
(-0.6 -3 3.5)
(-0.6 -2.6 3.5)
(-0.6 -5 4)
(-0.6 -4.6 4)
(-0.6 -4.2 4)
(-0.6 -3.8 4)
(-0.6 -3.4 4)
(-0.6 -3 4)
(-0.6 -2.6 4)
(-0.6 -5 4.5)
(-0.6 -4.6 4.5)
(-0.6 -4.2 4.5)
(-0.6 -3.8 4.5)
(-0.6 -3.4 4.5)
(-0.6 -3 4.5)
(-0.6 -2.6 4.5)
(-0.6 -5 5)
(-0.6 -4.6 5)
(-0.6 -4.2 5)
(-0.6 -3.8 5)
(-0.6 -3.4 5)
(-0.6 -3 5)
(-0.6 -2.6 5)
(2 -4.8 0.25)
(2 -4.4 0.25)
(2 -4 0.25)
(2.4 -4.8 0.25)
(2.8 -4.8 0.25)
(3.2 -4.8 0.25)
(2.4 -4.4 0.25)
(2.8 -4.4 0.25)
(3.2 -4.4 0.25)
(2.4 -4 0.25)
(2.8 -4 0.25)
(2.4 -4.8 0.75)
(2.8 -4.8 0.75)
(2.4 -4.4 0.75)
(2.8 -4.4 0.75)
(2.2 -4.8 1)
(2.2 -5 0.75)
(2.4 -5 1)
(2.2 -4.6 0.75)
(2.2 -4.4 1)
(2.4 -4.6 1)
(2.2 -4.8 0.5)
(2.2 -5 0.25)
(2 -5 0.5)
(2.4 -5 0.5)
(2.2 -4.6 0.25)
(2.2 -4.4 0.5)
(2 -4.6 0.5)
(2.4 -4.6 0.5)
(2.2 -4.8 0)
(2 -5 0)
(2.4 -5 0)
(2.2 -4.4 0)
(2 -4.6 0)
(2.4 -4.6 0)
(2.2 -4.2 0.25)
(2.2 -4 0)
(2 -4.2 0)
(2.4 -4.2 0)
(2.2 -4 0.5)
(2.2 -4.2 0.75)
(2 -4.2 0.5)
(2.4 -4.2 0.5)
(2.2 -3.8 0.25)
(2 -3.8 0)
(2.4 -3.8 0)
(2 -3.8 0.5)
(2.4 -3.8 0.5)
(2.4 -4.2 1)
(1.8 -4.8 0)
(1.8 -5 0.25)
(1.8 -4.4 0)
(1.8 -4.6 0.25)
(1.8 -4 0)
(1.8 -4.2 0.25)
(1.8 -3.8 0.25)
(1.8 -4.8 0.5)
(1.8 -4.4 0.5)
(1.8 -4 0.5)
(2.8 -5 0)
(2.6 -4.8 0)
(2.6 -5 0.25)
(3.2 -5 0)
(3 -4.8 0)
(3 -5 0.25)
(3.4 -4.8 0)
(3.4 -5 0.25)
(2.8 -4.6 0)
(2.6 -4.4 0)
(2.6 -4.6 0.25)
(3.2 -4.6 0)
(3 -4.4 0)
(3 -4.6 0.25)
(3.4 -4.4 0)
(3.4 -4.6 0.25)
(2.8 -4.2 0)
(2.6 -4 0)
(2.6 -4.2 0.25)
(3.2 -4.2 0)
(3 -4 0)
(3 -4.2 0.25)
(3.4 -4.2 0.25)
(2.8 -3.8 0)
(2.6 -3.8 0.25)
(3 -3.8 0.25)
(2.8 -5 0.5)
(2.6 -4.8 0.5)
(2.6 -5 0.75)
(3.2 -5 0.5)
(3 -4.8 0.5)
(3 -5 0.75)
(3.4 -4.8 0.5)
(2.8 -4.6 0.5)
(2.6 -4.4 0.5)
(2.6 -4.6 0.75)
(3.2 -4.6 0.5)
(3 -4.4 0.5)
(3 -4.6 0.75)
(3.4 -4.4 0.5)
(2.8 -4.2 0.5)
(2.6 -4 0.5)
(2.6 -4.2 0.75)
(3.2 -4.2 0.5)
(3 -4 0.5)
(3 -4.2 0.75)
(2.8 -3.8 0.5)
(2.8 -5 1)
(2.6 -4.8 1)
(3 -4.8 1)
(2.8 -4.6 1)
(2.6 -4.4 1)
(3 -4.4 1)
(2.8 -4.2 1)
(1.8 -4.8 0.25)
(2 -4.6 0.25)
(2 -4.8 0.5)
(2.2 -4.8 0.25)
(1.8 -4.4 0.25)
(2 -4.2 0.25)
(2 -4.4 0.5)
(2.2 -4.4 0.25)
(1.8 -4 0.25)
(2 -3.8 0.25)
(2 -4 0.5)
(2.2 -4 0.25)
(2.2 -4.8 0.75)
(2.2 -4.4 0.75)
(2.6 -4.8 0.25)
(2.4 -4.6 0.25)
(2.4 -4.8 0.5)
(3 -4.8 0.25)
(2.8 -4.6 0.25)
(2.8 -4.8 0.5)
(3.4 -4.8 0.25)
(3.2 -4.6 0.25)
(3.2 -4.8 0.5)
(2.6 -4.4 0.25)
(2.4 -4.2 0.25)
(2.4 -4.4 0.5)
(3 -4.4 0.25)
(2.8 -4.2 0.25)
(2.8 -4.4 0.5)
(3.4 -4.4 0.25)
(3.2 -4.2 0.25)
(3.2 -4.4 0.5)
(2.6 -4 0.25)
(2.4 -3.8 0.25)
(2.4 -4 0.5)
(3 -4 0.25)
(2.8 -3.8 0.25)
(2.8 -4 0.5)
(2.6 -4.8 0.75)
(2.4 -4.6 0.75)
(2.4 -4.8 1)
(3 -4.8 0.75)
(2.8 -4.6 0.75)
(2.8 -4.8 1)
(2.6 -4.4 0.75)
(2.4 -4.2 0.75)
(2.4 -4.4 1)
(3 -4.4 0.75)
(2.8 -4.2 0.75)
(2.8 -4.4 1)
(2 -4.8 0)
(2 -4.4 0)
(2 -4 0)
(2.4 -4.8 0)
(2.4 -4.4 0)
(2.4 -4 0)
(2.8 -4.8 0)
(2.8 -4.4 0)
(2.8 -4 0)
(3.2 -4.8 0)
(3.2 -4.4 0)
(2 -5 0.25)
(2.4 -5 0.25)
(2.4 -5 0.75)
(2.8 -5 0.25)
(2.8 -5 0.75)
(3.2 -5 0.25)
(2.7 -4.9 0.125)
(2.3 -4.5 0.375)
(2.7 -4.5 0.125)
(2.3 -4.1 0.125)
(2.1 -4.7 0.125)
(2.1 -4.5 0.125)
(2.1 -4.3 0.125)
(2.3 -4.7 0.375)
(2.3 -4.9 0.125)
(2.3 -4.7 0.125)
(2.5 -4.9 0.125)
(2.5 -4.7 0.125)
(2.5 -4.7 0.375)
(2.7 -4.7 0.125)
(2.9 -4.7 0.125)
(2.7 -4.7 0.375)
(2.3 -4.5 0.125)
(2.3 -4.3 0.125)
(2.3 -4.3 0.375)
(2.5 -4.5 0.125)
(2.5 -4.3 0.125)
(2.5 -4.5 0.375)
(2.5 -4.3 0.375)
(2.9 -4.5 0.125)
(2.7 -4.3 0.125)
(2.7 -4.5 0.375)
(2.5 -4.1 0.125)
(2.5 -4.5 0.625)
(2.2 -4.7 0.5)
(2.2 -4.6 0.375)
(2.2 -4.5 0.5)
(2.3 -4.6 0.5)
(2.2 -5 0.125)
(2.2 -4.9 0)
(2.3 -5 0)
(2.2 -4.6 0.125)
(2.2 -4.7 0)
(2.2 -4.5 0)
(2.1 -4.6 0)
(2.3 -4.6 0)
(2.2 -4.3 0)
(2.2 -4.2 0.125)
(2.2 -4.1 0)
(2.1 -4.2 0)
(2.3 -4.2 0)
(2.2 -4.3 0.5)
(2.2 -4.2 0.375)
(2.3 -4.2 0.5)
(2.5 -5 0)
(2.7 -5 0)
(2.6 -4.9 0)
(2.6 -5 0.125)
(2.5 -4.6 0)
(2.6 -4.7 0)
(2.7 -4.6 0)
(2.6 -4.5 0)
(2.6 -4.6 0.125)
(3 -4.7 0)
(2.9 -4.6 0)
(3 -4.5 0)
(3 -4.6 0.125)
(2.5 -4.2 0)
(2.6 -4.3 0)
(2.7 -4.2 0)
(2.6 -4.1 0)
(2.6 -4.2 0.125)
(2.5 -4.6 0.5)
(2.6 -4.6 0.375)
(2.6 -4.7 0.5)
(2.7 -4.6 0.5)
(2.6 -4.5 0.5)
(2.6 -4.6 0.625)
(2.5 -4.2 0.5)
(2.6 -4.2 0.375)
(2.6 -4.3 0.5)
(2 -4.7 0.25)
(2.1 -4.8 0.25)
(2 -4.8 0.125)
(2 -4.5 0.25)
(2 -4.3 0.25)
(2.1 -4.4 0.25)
(2 -4.4 0.125)
(2.3 -4.8 0.25)
(2.5 -4.8 0.25)
(2.4 -4.7 0.25)
(2.4 -4.8 0.375)
(2.4 -4.8 0.125)
(2.4 -4.9 0.25)
(2.7 -4.8 0.25)
(2.9 -4.8 0.25)
(2.8 -4.7 0.25)
(2.8 -4.8 0.375)
(2.8 -4.8 0.125)
(2.8 -4.9 0.25)
(2.3 -4.4 0.25)
(2.4 -4.5 0.25)
(2.5 -4.4 0.25)
(2.4 -4.3 0.25)
(2.4 -4.4 0.375)
(2.4 -4.4 0.125)
(2.8 -4.5 0.25)
(2.7 -4.4 0.25)
(2.9 -4.4 0.25)
(2.8 -4.3 0.25)
(2.8 -4.4 0.375)
(2.8 -4.4 0.125)
(2.3 -4 0.25)
(2.4 -4.1 0.25)
(2.5 -4 0.25)
(2.4 -4 0.125)
(2.4 -4.4 0.625)
(2.4 -4.5 0.75)
(2.5 -4.4 0.75)
(2.2 -4.8 0.375)
(2.3 -4.8 0.5)
(2.2 -4.9 0.25)
(2.3 -5 0.25)
(2.1 -4.6 0.25)
(2.2 -4.7 0.25)
(2.2 -4.5 0.25)
(2.3 -4.6 0.25)
(2.2 -4.4 0.375)
(2.3 -4.4 0.5)
(2.4 -4.6 0.375)
(2.4 -4.7 0.5)
(2.4 -4.5 0.5)
(2.4 -4.6 0.625)
(2.2 -4.8 0.125)
(2.1 -4.8 0)
(2.3 -4.8 0)
(2.4 -4.9 0)
(2.4 -5 0.125)
(2.2 -4.4 0.125)
(2.1 -4.4 0)
(2.3 -4.4 0)
(2 -4.6 0.125)
(2 -4.7 0)
(2 -4.5 0)
(2.4 -4.6 0.125)
(2.4 -4.7 0)
(2.4 -4.5 0)
(2.1 -4.2 0.25)
(2.2 -4.3 0.25)
(2.2 -4.1 0.25)
(2.3 -4.2 0.25)
(2.2 -4 0.125)
(2.3 -4 0)
(2 -4.2 0.125)
(2 -4.3 0)
(2.4 -4.2 0.125)
(2.4 -4.3 0)
(2.4 -4.1 0)
(2.4 -4.2 0.375)
(2.4 -4.3 0.5)
(2.8 -4.9 0)
(2.8 -5 0.125)
(2.6 -4.8 0.125)
(2.5 -4.8 0)
(2.7 -4.8 0)
(2.6 -4.9 0.25)
(2.5 -5 0.25)
(2.7 -5 0.25)
(3 -4.8 0.125)
(2.9 -4.8 0)
(2.8 -4.6 0.125)
(2.8 -4.7 0)
(2.8 -4.5 0)
(2.6 -4.4 0.125)
(2.5 -4.4 0)
(2.7 -4.4 0)
(2.6 -4.7 0.25)
(2.5 -4.6 0.25)
(2.7 -4.6 0.25)
(2.6 -4.5 0.25)
(3 -4.4 0.125)
(2.9 -4.4 0)
(3 -4.7 0.25)
(2.9 -4.6 0.25)
(3 -4.5 0.25)
(2.8 -4.2 0.125)
(2.8 -4.3 0)
(2.6 -4 0.125)
(2.5 -4 0)
(2.6 -4.3 0.25)
(2.5 -4.2 0.25)
(2.7 -4.2 0.25)
(2.6 -4.1 0.25)
(2.6 -4.8 0.375)
(2.5 -4.8 0.5)
(2.7 -4.8 0.5)
(2.8 -4.6 0.375)
(2.8 -4.7 0.5)
(2.8 -4.5 0.5)
(2.6 -4.4 0.375)
(2.5 -4.4 0.5)
(2.7 -4.4 0.5)
(2.6 -4.4 0.625)
(2.5 -4.6 0.75)
(2.6 -4.5 0.75)
(2.2 -4.5 0.375)
(2.1 -4.5 0.25)
(2.2 -4.1 0.125)
(2.1 -4.2 0.125)
(2.3 -4.8 0.375)
(2.3 -4.9 0.25)
(2.6 -4.9 0.125)
(2.8 -4.9 0.125)
(2.7 -4.8 0.125)
(2.7 -4.9 0.25)
(2.3 -4.6 0.375)
(2.3 -4.5 0.25)
(2.3 -4.4 0.375)
(2.4 -4.5 0.375)
(2.3 -4.5 0.5)
(2.7 -4.6 0.125)
(2.6 -4.5 0.125)
(2.8 -4.5 0.125)
(2.7 -4.4 0.125)
(2.7 -4.5 0.25)
(3 -4.5 0.125)
(2.3 -4.2 0.125)
(2.3 -4.1 0.25)
(2.3 -4 0.125)
(2.4 -4.1 0.125)
(2.7 -4.2 0.125)
(2.6 -4.1 0.125)
(2.7 -4.5 0.5)
(2.6 -4.5 0.625)
(2.1 -4.7 0.25)
(2.2 -4.7 0.375)
(2.1 -4.8 0.125)
(2.2 -4.9 0.125)
(2 -4.7 0.125)
(2.1 -4.6 0.125)
(2.2 -4.7 0.125)
(2.1 -4.4 0.125)
(2 -4.5 0.125)
(2.2 -4.5 0.125)
(2.1 -4.3 0.25)
(2 -4.3 0.125)
(2.2 -4.3 0.125)
(2.2 -4.3 0.375)
(2.3 -4.7 0.25)
(2.4 -4.7 0.375)
(2.3 -4.7 0.5)
(2.3 -4.8 0.125)
(2.4 -4.9 0.125)
(2.4 -4.7 0.125)
(2.3 -4.6 0.125)
(2.5 -4.8 0.125)
(2.5 -4.9 0.25)
(2.5 -4.7 0.25)
(2.6 -4.7 0.125)
(2.5 -4.6 0.125)
(2.5 -4.8 0.375)
(2.6 -4.7 0.375)
(2.5 -4.6 0.375)
(2.5 -4.7 0.5)
(2.9 -4.8 0.125)
(2.8 -4.7 0.125)
(2.7 -4.7 0.25)
(2.9 -4.7 0.25)
(3 -4.7 0.125)
(2.9 -4.6 0.125)
(2.7 -4.8 0.375)
(2.8 -4.7 0.375)
(2.7 -4.6 0.375)
(2.7 -4.7 0.5)
(2.3 -4.4 0.125)
(2.4 -4.5 0.125)
(2.3 -4.3 0.25)
(2.4 -4.3 0.125)
(2.4 -4.3 0.375)
(2.3 -4.2 0.375)
(2.3 -4.3 0.5)
(2.5 -4.4 0.125)
(2.5 -4.5 0.25)
(2.5 -4.3 0.25)
(2.6 -4.3 0.125)
(2.5 -4.2 0.125)
(2.5 -4.4 0.375)
(2.6 -4.5 0.375)
(2.5 -4.5 0.5)
(2.6 -4.3 0.375)
(2.5 -4.2 0.375)
(2.5 -4.3 0.5)
(2.9 -4.4 0.125)
(2.9 -4.5 0.25)
(2.8 -4.3 0.125)
(2.7 -4.3 0.25)
(2.8 -4.5 0.375)
(2.7 -4.4 0.375)
(2.5 -4 0.125)
(2.5 -4.1 0.25)
(2.5 -4.6 0.625)
(2.4 -4.5 0.625)
(2.5 -4.4 0.625)
(2.5 -4.5 0.75)
(2.3 -4.9 0)
(2.3 -4.5 0)
(2.3 -4.1 0)
(2.7 -4.9 0)
(2.7 -4.5 0)
(2.1 -4.7 0)
(2.1 -4.3 0)
(2.1 -4.5 0)
(2.3 -4.7 0)
(2.5 -4.7 0)
(2.5 -4.9 0)
(2.3 -4.3 0)