/*--------------------------------*- C++ -*----------------------------------*\
  =========                 |
  \\      /  F ield         | OpenFOAM: The Open Source CFD Toolbox
   \\    /   O peration     | Website:  https://openfoam.org
    \\  /    A nd           | Version:  9
     \\/     M anipulation  |
\*---------------------------------------------------------------------------*/
FoamFile
{
    format      ascii;
    class       polyBoundaryMesh;
    location    "constant/polyMesh";
    object      boundary;
}
// * * * * * * * * * * * * * * * * * * * * * * * * * * * * * * * * * * * * * //

12
(
    ground
    {
        type            patch;
        nFaces          152;
        startFace       5121;
    }
    outlet
    {
        type            patch;
        nFaces          0;
        startFace       5273;
    }
    wall
    {
        type            patch;
        nFaces          0;
        startFace       5273;
    }
    wall2
    {
        type            patch;
        nFaces          411;
        startFace       5273;
    }
    wall3
    {
        type            patch;
        nFaces          0;
        startFace       5684;
    }
    internalPatch
    {
        type            internal;
        inGroups        List<word> 1(internal);
        nFaces          0;
        startFace       5684;
    }
    procBoundary4to0
    {
        type            processor;
        inGroups        List<word> 1(processor);
        nFaces          9;
        startFace       5684;
        matchTolerance  0.0001;
        myProcNo        4;
        neighbProcNo    0;
    }
    procBoundary4to1
    {
        type            processor;
        inGroups        List<word> 1(processor);
        nFaces          15;
        startFace       5693;
        matchTolerance  0.0001;
        myProcNo        4;
        neighbProcNo    1;
    }
    procBoundary4to2
    {
        type            processor;
        inGroups        List<word> 1(processor);
        nFaces          44;
        startFace       5708;
        matchTolerance  0.0001;
        myProcNo        4;
        neighbProcNo    2;
    }
    procBoundary4to3
    {
        type            processor;
        inGroups        List<word> 1(processor);
        nFaces          64;
        startFace       5752;
        matchTolerance  0.0001;
        myProcNo        4;
        neighbProcNo    3;
    }
    procBoundary4to5
    {
        type            processor;
        inGroups        List<word> 1(processor);
        nFaces          173;
        startFace       5816;
        matchTolerance  0.0001;
        myProcNo        4;
        neighbProcNo    5;
    }
    procBoundary4to7
    {
        type            processor;
        inGroups        List<word> 1(processor);
        nFaces          68;
        startFace       5989;
        matchTolerance  0.0001;
        myProcNo        4;
        neighbProcNo    7;
    }
)

// ************************************************************************* //
