/*--------------------------------*- C++ -*----------------------------------*\
  =========                 |
  \\      /  F ield         | OpenFOAM: The Open Source CFD Toolbox
   \\    /   O peration     | Website:  https://openfoam.org
    \\  /    A nd           | Version:  9
     \\/     M anipulation  |
\*---------------------------------------------------------------------------*/
FoamFile
{
    format      binary;
    class       polyBoundaryMesh;
    location    "constant/polyMesh";
    object      boundary;
}
// * * * * * * * * * * * * * * * * * * * * * * * * * * * * * * * * * * * * * //

6
(
    ground
    {
        type            patch;
        nFaces          108;
        startFace       3472;
    }
    outlet
    {
        type            patch;
        nFaces          255;
        startFace       3580;
    }
    walls
    {
        type            wall;
        inGroups        List<word> 1(wall);
        nFaces          236;
        startFace       3835;
    }
    internalPatch
    {
        type            internal;
        inGroups        List<word> 1(internal);
        nFaces          0;
        startFace       4071;
    }
    procBoundary3to0
    {
        type            processor;
        inGroups        List<word> 1(processor);
        nFaces          119;
        startFace       4071;
        matchTolerance  0.0001;
        myProcNo        3;
        neighbProcNo    0;
    }
    procBoundary3to2
    {
        type            processor;
        inGroups        List<word> 1(processor);
        nFaces          129;
        startFace       4190;
        matchTolerance  0.0001;
        myProcNo        3;
        neighbProcNo    2;
    }
)

// ************************************************************************* //
