/*--------------------------------*- C++ -*----------------------------------*\
  =========                 |
  \\      /  F ield         | OpenFOAM: The Open Source CFD Toolbox
   \\    /   O peration     | Website:  https://openfoam.org
    \\  /    A nd           | Version:  9
     \\/     M anipulation  |
\*---------------------------------------------------------------------------*/
FoamFile
{
    format      ascii;
    class       polyBoundaryMesh;
    location    "0.0004/polyMesh";
    object      boundary;
}
// * * * * * * * * * * * * * * * * * * * * * * * * * * * * * * * * * * * * * //

8
(
    ground
    {
        type            patch;
        nFaces          295;
        startFace       7828;
    }
    outlet
    {
        type            patch;
        nFaces          328;
        startFace       8123;
    }
    wall
    {
        type            patch;
        nFaces          0;
        startFace       8451;
    }
    wall2
    {
        type            patch;
        nFaces          0;
        startFace       8451;
    }
    wall3
    {
        type            patch;
        nFaces          521;
        startFace       8451;
    }
    internalPatch
    {
        type            internal;
        inGroups        List<word> 1(internal);
        nFaces          0;
        startFace       8972;
    }
    procBoundary1to0
    {
        type            processor;
        inGroups        List<word> 1(processor);
        nFaces          162;
        startFace       8972;
        matchTolerance  0.0001;
        myProcNo        1;
        neighbProcNo    0;
    }
    procBoundary1to4
    {
        type            processor;
        inGroups        List<word> 1(processor);
        nFaces          66;
        startFace       9134;
        matchTolerance  0.0001;
        myProcNo        1;
        neighbProcNo    4;
    }
)

// ************************************************************************* //
