/*--------------------------------*- C++ -*----------------------------------*\
  =========                 |
  \\      /  F ield         | OpenFOAM: The Open Source CFD Toolbox
   \\    /   O peration     | Website:  https://openfoam.org
    \\  /    A nd           | Version:  9
     \\/     M anipulation  |
\*---------------------------------------------------------------------------*/
FoamFile
{
    format      ascii;
    class       polyBoundaryMesh;
    location    "0.00345/polyMesh";
    object      boundary;
}
// * * * * * * * * * * * * * * * * * * * * * * * * * * * * * * * * * * * * * //

9
(
    ground
    {
        type            patch;
        nFaces          1469;
        startFace       93866;
    }
    outlet
    {
        type            patch;
        nFaces          431;
        startFace       95335;
    }
    wall
    {
        type            patch;
        nFaces          0;
        startFace       95766;
    }
    wall2
    {
        type            patch;
        nFaces          0;
        startFace       95766;
    }
    wall3
    {
        type            patch;
        nFaces          0;
        startFace       95766;
    }
    internalPatch
    {
        type            internal;
        inGroups        List<word> 1(internal);
        nFaces          0;
        startFace       95766;
    }
    procBoundary3to2
    {
        type            processor;
        inGroups        List<word> 1(processor);
        nFaces          1288;
        startFace       95766;
        matchTolerance  0.0001;
        myProcNo        3;
        neighbProcNo    2;
    }
    procBoundary3to4
    {
        type            processor;
        inGroups        List<word> 1(processor);
        nFaces          750;
        startFace       97054;
        matchTolerance  0.0001;
        myProcNo        3;
        neighbProcNo    4;
    }
    procBoundary3to5
    {
        type            processor;
        inGroups        List<word> 1(processor);
        nFaces          777;
        startFace       97804;
        matchTolerance  0.0001;
        myProcNo        3;
        neighbProcNo    5;
    }
)

// ************************************************************************* //
