/*--------------------------------*- C++ -*----------------------------------*\
  =========                 |
  \\      /  F ield         | OpenFOAM: The Open Source CFD Toolbox
   \\    /   O peration     | Website:  https://openfoam.org
    \\  /    A nd           | Version:  9
     \\/     M anipulation  |
\*---------------------------------------------------------------------------*/
FoamFile
{
    format      ascii;
    class       polyBoundaryMesh;
    location    "0.00045/polyMesh";
    object      boundary;
}
// * * * * * * * * * * * * * * * * * * * * * * * * * * * * * * * * * * * * * //

6
(
    ground
    {
        type            patch;
        nFaces          2176;
        startFace       83913;
    }
    outlet
    {
        type            patch;
        nFaces          1808;
        startFace       86089;
    }
    wall
    {
        type            patch;
        nFaces          1038;
        startFace       87897;
    }
    wall2
    {
        type            patch;
        nFaces          624;
        startFace       88935;
    }
    wall3
    {
        type            patch;
        nFaces          564;
        startFace       89559;
    }
    internalPatch
    {
        type            internal;
        inGroups        List<word> 1(internal);
        nFaces          0;
        startFace       90123;
    }
)

// ************************************************************************* //
