/*--------------------------------*- C++ -*----------------------------------*\
  =========                 |
  \\      /  F ield         | OpenFOAM: The Open Source CFD Toolbox
   \\    /   O peration     | Website:  https://openfoam.org
    \\  /    A nd           | Version:  9
     \\/     M anipulation  |
\*---------------------------------------------------------------------------*/
FoamFile
{
    format      ascii;
    class       polyBoundaryMesh;
    location    "0/polyMesh";
    object      boundary;
}
// * * * * * * * * * * * * * * * * * * * * * * * * * * * * * * * * * * * * * //

9
(
    ground
    {
        type            patch;
        nFaces          291;
        startFace       12608;
    }
    outlet
    {
        type            patch;
        nFaces          441;
        startFace       12899;
    }
    wall
    {
        type            patch;
        nFaces          846;
        startFace       13340;
    }
    wall2
    {
        type            patch;
        nFaces          0;
        startFace       14186;
    }
    wall3
    {
        type            patch;
        nFaces          0;
        startFace       14186;
    }
    internalPatch
    {
        type            internal;
        inGroups        List<word> 1(internal);
        nFaces          0;
        startFace       14186;
    }
    procBoundary4to0
    {
        type            processor;
        inGroups        List<word> 1(processor);
        nFaces          120;
        startFace       14186;
        matchTolerance  0.0001;
        myProcNo        4;
        neighbProcNo    0;
    }
    procBoundary4to1
    {
        type            processor;
        inGroups        List<word> 1(processor);
        nFaces          154;
        startFace       14306;
        matchTolerance  0.0001;
        myProcNo        4;
        neighbProcNo    1;
    }
    procBoundary4to5
    {
        type            processor;
        inGroups        List<word> 1(processor);
        nFaces          337;
        startFace       14460;
        matchTolerance  0.0001;
        myProcNo        4;
        neighbProcNo    5;
    }
)

// ************************************************************************* //
