/*--------------------------------*- C++ -*----------------------------------*\
  =========                 |
  \\      /  F ield         | OpenFOAM: The Open Source CFD Toolbox
   \\    /   O peration     | Website:  https://openfoam.org
    \\  /    A nd           | Version:  9
     \\/     M anipulation  |
\*---------------------------------------------------------------------------*/
FoamFile
{
    format      ascii;
    class       polyBoundaryMesh;
    location    "0.00325/polyMesh";
    object      boundary;
}
// * * * * * * * * * * * * * * * * * * * * * * * * * * * * * * * * * * * * * //

10
(
    ground
    {
        type            patch;
        nFaces          947;
        startFace       81774;
    }
    outlet
    {
        type            patch;
        nFaces          461;
        startFace       82721;
    }
    wall
    {
        type            patch;
        nFaces          1126;
        startFace       83182;
    }
    wall2
    {
        type            patch;
        nFaces          0;
        startFace       84308;
    }
    wall3
    {
        type            patch;
        nFaces          0;
        startFace       84308;
    }
    internalPatch
    {
        type            internal;
        inGroups        List<word> 1(internal);
        nFaces          0;
        startFace       84308;
    }
    procBoundary2to0
    {
        type            processor;
        inGroups        List<word> 1(processor);
        nFaces          564;
        startFace       84308;
        matchTolerance  0.0001;
        myProcNo        2;
        neighbProcNo    0;
    }
    procBoundary2to1
    {
        type            processor;
        inGroups        List<word> 1(processor);
        nFaces          2333;
        startFace       84872;
        matchTolerance  0.0001;
        myProcNo        2;
        neighbProcNo    1;
    }
    procBoundary2to3
    {
        type            processor;
        inGroups        List<word> 1(processor);
        nFaces          1216;
        startFace       87205;
        matchTolerance  0.0001;
        myProcNo        2;
        neighbProcNo    3;
    }
    procBoundary2to5
    {
        type            processor;
        inGroups        List<word> 1(processor);
        nFaces          688;
        startFace       88421;
        matchTolerance  0.0001;
        myProcNo        2;
        neighbProcNo    5;
    }
)

// ************************************************************************* //
