/*--------------------------------*- C++ -*----------------------------------*\
  =========                 |
  \\      /  F ield         | OpenFOAM: The Open Source CFD Toolbox
   \\    /   O peration     | Website:  https://openfoam.org
    \\  /    A nd           | Version:  9
     \\/     M anipulation  |
\*---------------------------------------------------------------------------*/
FoamFile
{
    format      ascii;
    class       polyBoundaryMesh;
    location    "constant/polyMesh";
    object      boundary;
}
// * * * * * * * * * * * * * * * * * * * * * * * * * * * * * * * * * * * * * //

9
(
    ground
    {
        type            patch;
        nFaces          205;
        startFace       5019;
    }
    outlet
    {
        type            patch;
        nFaces          241;
        startFace       5224;
    }
    wall
    {
        type            patch;
        nFaces          267;
        startFace       5465;
    }
    wall2
    {
        type            patch;
        nFaces          0;
        startFace       5732;
    }
    wall3
    {
        type            patch;
        nFaces          0;
        startFace       5732;
    }
    internalPatch
    {
        type            internal;
        inGroups        List<word> 1(internal);
        nFaces          0;
        startFace       5732;
    }
    procBoundary6to0
    {
        type            processor;
        inGroups        List<word> 1(processor);
        nFaces          81;
        startFace       5732;
        matchTolerance  0.0001;
        myProcNo        6;
        neighbProcNo    0;
    }
    procBoundary6to5
    {
        type            processor;
        inGroups        List<word> 1(processor);
        nFaces          33;
        startFace       5813;
        matchTolerance  0.0001;
        myProcNo        6;
        neighbProcNo    5;
    }
    procBoundary6to7
    {
        type            processor;
        inGroups        List<word> 1(processor);
        nFaces          139;
        startFace       5846;
        matchTolerance  0.0001;
        myProcNo        6;
        neighbProcNo    7;
    }
)

// ************************************************************************* //
