/*--------------------------------*- C++ -*----------------------------------*\
  =========                 |
  \\      /  F ield         | OpenFOAM: The Open Source CFD Toolbox
   \\    /   O peration     | Website:  https://openfoam.org
    \\  /    A nd           | Version:  9
     \\/     M anipulation  |
\*---------------------------------------------------------------------------*/
FoamFile
{
    format      ascii;
    class       polyBoundaryMesh;
    location    "0.00105/polyMesh";
    object      boundary;
}
// * * * * * * * * * * * * * * * * * * * * * * * * * * * * * * * * * * * * * //

10
(
    ground
    {
        type            patch;
        nFaces          518;
        startFace       25700;
    }
    outlet
    {
        type            patch;
        nFaces          0;
        startFace       26218;
    }
    wall
    {
        type            patch;
        nFaces          0;
        startFace       26218;
    }
    wall2
    {
        type            patch;
        nFaces          0;
        startFace       26218;
    }
    wall3
    {
        type            patch;
        nFaces          0;
        startFace       26218;
    }
    internalPatch
    {
        type            internal;
        inGroups        List<word> 1(internal);
        nFaces          0;
        startFace       26218;
    }
    procBoundary4to0
    {
        type            processor;
        inGroups        List<word> 1(processor);
        nFaces          285;
        startFace       26218;
        matchTolerance  0.0001;
        myProcNo        4;
        neighbProcNo    0;
    }
    procBoundary4to2
    {
        type            processor;
        inGroups        List<word> 1(processor);
        nFaces          212;
        startFace       26503;
        matchTolerance  0.0001;
        myProcNo        4;
        neighbProcNo    2;
    }
    procBoundary4to3
    {
        type            processor;
        inGroups        List<word> 1(processor);
        nFaces          1249;
        startFace       26715;
        matchTolerance  0.0001;
        myProcNo        4;
        neighbProcNo    3;
    }
    procBoundary4to5
    {
        type            processor;
        inGroups        List<word> 1(processor);
        nFaces          630;
        startFace       27964;
        matchTolerance  0.0001;
        myProcNo        4;
        neighbProcNo    5;
    }
)

// ************************************************************************* //
