/*--------------------------------*- C++ -*----------------------------------*\
  =========                 |
  \\      /  F ield         | OpenFOAM: The Open Source CFD Toolbox
   \\    /   O peration     | Website:  https://openfoam.org
    \\  /    A nd           | Version:  9
     \\/     M anipulation  |
\*---------------------------------------------------------------------------*/
FoamFile
{
    format      ascii;
    class       polyBoundaryMesh;
    location    "0.0001/polyMesh";
    object      boundary;
}
// * * * * * * * * * * * * * * * * * * * * * * * * * * * * * * * * * * * * * //

12
(
    ground
    {
        type            patch;
        nFaces          194;
        startFace       5693;
    }
    outlet
    {
        type            patch;
        nFaces          0;
        startFace       5887;
    }
    wall
    {
        type            patch;
        nFaces          0;
        startFace       5887;
    }
    wall2
    {
        type            patch;
        nFaces          388;
        startFace       5887;
    }
    wall3
    {
        type            patch;
        nFaces          34;
        startFace       6275;
    }
    internalPatch
    {
        type            internal;
        inGroups        List<word> 1(internal);
        nFaces          0;
        startFace       6309;
    }
    procBoundary7to0
    {
        type            processor;
        inGroups        List<word> 1(processor);
        nFaces          103;
        startFace       6309;
        matchTolerance  0.0001;
        myProcNo        7;
        neighbProcNo    0;
    }
    procBoundary7to1
    {
        type            processor;
        inGroups        List<word> 1(processor);
        nFaces          35;
        startFace       6412;
        matchTolerance  0.0001;
        myProcNo        7;
        neighbProcNo    1;
    }
    procBoundary7to2
    {
        type            processor;
        inGroups        List<word> 1(processor);
        nFaces          45;
        startFace       6447;
        matchTolerance  0.0001;
        myProcNo        7;
        neighbProcNo    2;
    }
    procBoundary7to4
    {
        type            processor;
        inGroups        List<word> 1(processor);
        nFaces          18;
        startFace       6492;
        matchTolerance  0.0001;
        myProcNo        7;
        neighbProcNo    4;
    }
    procBoundary7to5
    {
        type            processor;
        inGroups        List<word> 1(processor);
        nFaces          102;
        startFace       6510;
        matchTolerance  0.0001;
        myProcNo        7;
        neighbProcNo    5;
    }
    procBoundary7to6
    {
        type            processor;
        inGroups        List<word> 1(processor);
        nFaces          223;
        startFace       6612;
        matchTolerance  0.0001;
        myProcNo        7;
        neighbProcNo    6;
    }
)

// ************************************************************************* //
