/*--------------------------------*- C++ -*----------------------------------*\
  =========                 |
  \\      /  F ield         | OpenFOAM: The Open Source CFD Toolbox
   \\    /   O peration     | Website:  https://openfoam.org
    \\  /    A nd           | Version:  9
     \\/     M anipulation  |
\*---------------------------------------------------------------------------*/
FoamFile
{
    format      ascii;
    class       polyBoundaryMesh;
    location    "0.00245/polyMesh";
    object      boundary;
}
// * * * * * * * * * * * * * * * * * * * * * * * * * * * * * * * * * * * * * //

9
(
    ground
    {
        type            patch;
        nFaces          710;
        startFace       58432;
    }
    outlet
    {
        type            patch;
        nFaces          255;
        startFace       59142;
    }
    wall
    {
        type            patch;
        nFaces          0;
        startFace       59397;
    }
    wall2
    {
        type            patch;
        nFaces          0;
        startFace       59397;
    }
    wall3
    {
        type            patch;
        nFaces          0;
        startFace       59397;
    }
    internalPatch
    {
        type            internal;
        inGroups        List<word> 1(internal);
        nFaces          0;
        startFace       59397;
    }
    procBoundary5to2
    {
        type            processor;
        inGroups        List<word> 1(processor);
        nFaces          1186;
        startFace       59397;
        matchTolerance  0.0001;
        myProcNo        5;
        neighbProcNo    2;
    }
    procBoundary5to3
    {
        type            processor;
        inGroups        List<word> 1(processor);
        nFaces          791;
        startFace       60583;
        matchTolerance  0.0001;
        myProcNo        5;
        neighbProcNo    3;
    }
    procBoundary5to4
    {
        type            processor;
        inGroups        List<word> 1(processor);
        nFaces          1169;
        startFace       61374;
        matchTolerance  0.0001;
        myProcNo        5;
        neighbProcNo    4;
    }
)

// ************************************************************************* //
