/*--------------------------------*- C++ -*----------------------------------*\
  =========                 |
  \\      /  F ield         | OpenFOAM: The Open Source CFD Toolbox
   \\    /   O peration     | Website:  https://openfoam.org
    \\  /    A nd           | Version:  9
     \\/     M anipulation  |
\*---------------------------------------------------------------------------*/
FoamFile
{
    format      ascii;
    class       vectorField;
    location    "0/polyMesh";
    object      points0;
}
// * * * * * * * * * * * * * * * * * * * * * * * * * * * * * * * * * * * * * //


156
(
(-0.762636 -0.762382 0.237445)
(-0.761875 -0.893204 0.238199)
(-0.75947 -0.896051 0.103527)
(-0.76195 -0.761531 0.106764)
(-0.763053 -0.76296 0.369304)
(-0.762819 -0.892415 0.369948)
(-0.76311 -0.630575 0.236996)
(-0.764414 -0.631036 0.368947)
(-0.763016 -0.629832 0.107576)
(-0.75978 -0.758922 0)
(-0.761285 -0.6291 0)
(-0.755851 -0.882671 0)
(-0.755602 -1 0.116828)
(-0.748323 -1 0)
(-0.75937 -1 0.240476)
(-0.760951 -1 0.370604)
(-0.763094 -0.892329 0.5)
(-0.76131 -1 0.500012)
(-0.763152 -0.763108 0.5)
(-0.764399 -0.63118 0.500003)
(-0.764406 -0.500001 0.368836)
(-0.763152 -0.50002 0.500002)
(-0.763186 -0.499948 0.236889)
(-0.763205 -0.499904 0.107681)
(-0.761498 -0.499883 0)
(-1 -0.5 0)
(-0.885497 -0.499938 0)
(-0.897024 -0.499968 0.103254)
(-1 -0.50012 0.114625)
(-0.892362 -0.500011 0.236894)
(-1 -0.500066 0.499998)
(-1 -0.500048 0.369843)
(-0.891136 -0.50003 0.369205)
(-0.890823 -0.500047 0.499998)
(-1 -0.500041 0.238922)
(-0.896702 -0.3713 0.103433)
(-0.89133 -0.369419 0.369405)
(-1 -0.375 0)
(-1 -0.369905 0.49999)
(-0.763068 -0.369288 0.237036)
(-0.760946 -0.370579 0)
(-1 -0.370799 0.239288)
(-1 -0.372401 0.115365)
(-0.762908 -0.369935 0.107557)
(-0.892454 -0.370045 0.237322)
(-0.891142 -0.369249 0.499993)
(-1 -0.370086 0.370025)
(-0.885082 -0.372289 0)
(-0.883778 -0.754991 0)
(-0.89676 -0.759096 0.10377)
(-1 -0.748323 0)
(-1 -0.755255 0.116907)
(-1 -0.759118 0.240885)
(-1 -0.760737 0.370822)
(-1 -0.761177 0.50001)
(-0.89328 -0.761475 0.238211)
(-0.89245 -0.762765 0.370067)
(-0.892364 -0.763105 0.500015)
(-1 -1 0)
(-1 -1 0.5)
(-1 -1 0.251677)
(-0.896205 -0.895283 0.104026)
(-0.896753 -0.896597 0.371337)
(-0.858633 -1 0)
(-1 -0.858633 0)
(-1 -1 0.141367)
(-1 -1 0.375)
(-0.885326 -1 0.500009)
(-1 -0.885442 0.499912)
(-0.883136 -1 0.244359)
(-1 -0.882656 0.244662)
(-0.876651 -1 0.123012)
(-1 -0.876599 0.122646)
(-0.896341 -0.896168 0.240555)
(-0.896898 -0.896804 0.499989)
(-0.884892 -1 0.372329)
(-1 -0.884969 0.372495)
(-0.877535 -0.875876 0)
(-0.897015 -0.628522 0.103386)
(-0.891328 -0.630621 0.369404)
(-1 -0.625 0)
(-1 -0.63024 0.500011)
(-1 -0.629228 0.239334)
(-1 -0.627574 0.115043)
(-1 -0.630006 0.370064)
(-0.892479 -0.629896 0.237212)
(-0.891137 -0.630836 0.500008)
(-0.885476 -0.627457 0)
(-0.370475 -0.760551 0)
(-0.369834 -0.762668 0.107533)
(-0.499958 -0.760988 0)
(-0.499959 -0.762964 0.107627)
(-0.629486 -0.760567 0)
(-0.63011 -0.762536 0.107556)
(-0.369208 -0.762923 0.236884)
(-0.499963 -0.763041 0.236786)
(-0.630726 -0.762893 0.236913)
(-0.368888 -0.764346 0.368835)
(-0.499988 -0.764336 0.368726)
(-0.631088 -0.764332 0.36887)
(-0.368806 -0.764365 0.499944)
(-0.50001 -0.76311 0.499958)
(-0.631209 -0.764351 0.499975)
(-0.5 -1 0)
(-0.500013 -1 0.499942)
(-0.499956 -1 0.238454)
(-0.371205 -0.896552 0.103037)
(-0.628723 -0.89649 0.103225)
(-0.630666 -0.891306 0.36925)
(-0.369307 -0.891304 0.369189)
(-0.625 -1 0)
(-0.375 -1 0)
(-0.499855 -0.885347 0)
(-0.499939 -1 0.114475)
(-0.49999 -1 0.369591)
(-0.630277 -1 0.499984)
(-0.369765 -1 0.49992)
(-0.50001 -0.890813 0.499941)
(-0.629332 -1 0.238942)
(-0.370542 -1 0.238705)
(-0.499956 -0.89231 0.236734)
(-0.372221 -1 0.114631)
(-0.499927 -0.896731 0.102991)
(-0.369901 -0.892395 0.236966)
(-0.369161 -0.891128 0.499918)
(-0.627682 -1 0.114742)
(-0.630087 -1 0.36984)
(-0.369878 -1 0.369736)
(-0.630013 -0.892416 0.237005)
(-0.499986 -0.891117 0.369036)
(-0.630852 -0.891121 0.499973)
(-0.372206 -0.8849 0)
(-0.627767 -0.884447 0)
(-0.499933 -0.499877 0)
(-0.500012 -0.499995 0.500014)
(-0.238156 -0.499867 0)
(-0.499944 -0.499907 0.236886)
(-0.63075 -0.630479 0.108682)
(-0.369139 -0.630494 0.108685)
(-0.499957 -0.630064 0)
(-0.630342 -0.499878 0)
(-0.369471 -0.499869 0)
(-0.499925 -0.49988 0.109187)
(-0.236512 -0.49989 0.107676)
(-0.238556 -0.629059 0)
(-0.499952 -0.631071 0.23561)
(-0.631209 -0.499905 0.235639)
(-0.368653 -0.499911 0.235647)
(-0.368932 -0.499882 0.108879)
(-0.631113 -0.630947 0.235613)
(-0.499949 -0.630686 0.108869)
(-0.630883 -0.49988 0.108878)
(-0.23685 -0.629834 0.107602)
(-0.368786 -0.630959 0.235611)
(-0.630212 -0.629865 0)
(-0.36969 -0.629839 0)
)


// ************************************************************************* //
