/*--------------------------------*- C++ -*----------------------------------*\
  =========                 |
  \\      /  F ield         | OpenFOAM: The Open Source CFD Toolbox
   \\    /   O peration     | Website:  https://openfoam.org
    \\  /    A nd           | Version:  9
     \\/     M anipulation  |
\*---------------------------------------------------------------------------*/
FoamFile
{
    format      binary;
    class       polyBoundaryMesh;
    location    "0.0016/polyMesh";
    object      boundary;
}
// * * * * * * * * * * * * * * * * * * * * * * * * * * * * * * * * * * * * * //

7
(
    ground
    {
        type            patch;
        nFaces          703;
        startFace       69173;
    }
    outlet
    {
        type            patch;
        nFaces          413;
        startFace       69876;
    }
    walls
    {
        type            wall;
        inGroups        List<word> 1(wall);
        nFaces          0;
        startFace       70289;
    }
    internalPatch
    {
        type            internal;
        inGroups        List<word> 1(internal);
        nFaces          0;
        startFace       70289;
    }
    procBoundary2to0
    {
        type            processor;
        inGroups        List<word> 1(processor);
        nFaces          906;
        startFace       70289;
        matchTolerance  0.0001;
        myProcNo        2;
        neighbProcNo    0;
    }
    procBoundary2to1
    {
        type            processor;
        inGroups        List<word> 1(processor);
        nFaces          270;
        startFace       71195;
        matchTolerance  0.0001;
        myProcNo        2;
        neighbProcNo    1;
    }
    procBoundary2to3
    {
        type            processor;
        inGroups        List<word> 1(processor);
        nFaces          1781;
        startFace       71465;
        matchTolerance  0.0001;
        myProcNo        2;
        neighbProcNo    3;
    }
)

// ************************************************************************* //
