/*--------------------------------*- C++ -*----------------------------------*\
  =========                 |
  \\      /  F ield         | OpenFOAM: The Open Source CFD Toolbox
   \\    /   O peration     | Website:  https://openfoam.org
    \\  /    A nd           | Version:  9
     \\/     M anipulation  |
\*---------------------------------------------------------------------------*/
FoamFile
{
    format      ascii;
    class       polyBoundaryMesh;
    location    "0.0003/polyMesh";
    object      boundary;
}
// * * * * * * * * * * * * * * * * * * * * * * * * * * * * * * * * * * * * * //

11
(
    ground
    {
        type            patch;
        nFaces          229;
        startFace       6610;
    }
    outlet
    {
        type            patch;
        nFaces          557;
        startFace       6839;
    }
    wall
    {
        type            patch;
        nFaces          0;
        startFace       7396;
    }
    wall2
    {
        type            patch;
        nFaces          0;
        startFace       7396;
    }
    wall3
    {
        type            patch;
        nFaces          0;
        startFace       7396;
    }
    internalPatch
    {
        type            internal;
        inGroups        List<word> 1(internal);
        nFaces          0;
        startFace       7396;
    }
    procBoundary4to0
    {
        type            processor;
        inGroups        List<word> 1(processor);
        nFaces          147;
        startFace       7396;
        matchTolerance  0.0001;
        myProcNo        4;
        neighbProcNo    0;
    }
    procBoundary4to3
    {
        type            processor;
        inGroups        List<word> 1(processor);
        nFaces          34;
        startFace       7543;
        matchTolerance  0.0001;
        myProcNo        4;
        neighbProcNo    3;
    }
    procBoundary4to5
    {
        type            processor;
        inGroups        List<word> 1(processor);
        nFaces          82;
        startFace       7577;
        matchTolerance  0.0001;
        myProcNo        4;
        neighbProcNo    5;
    }
    procBoundary4to6
    {
        type            processor;
        inGroups        List<word> 1(processor);
        nFaces          50;
        startFace       7659;
        matchTolerance  0.0001;
        myProcNo        4;
        neighbProcNo    6;
    }
    procBoundary4to7
    {
        type            processor;
        inGroups        List<word> 1(processor);
        nFaces          48;
        startFace       7709;
        matchTolerance  0.0001;
        myProcNo        4;
        neighbProcNo    7;
    }
)

// ************************************************************************* //
