/*--------------------------------*- C++ -*----------------------------------*\
  =========                 |
  \\      /  F ield         | OpenFOAM: The Open Source CFD Toolbox
   \\    /   O peration     | Website:  https://openfoam.org
    \\  /    A nd           | Version:  9
     \\/     M anipulation  |
\*---------------------------------------------------------------------------*/
FoamFile
{
    format      ascii;
    class       polyBoundaryMesh;
    location    "0.0001/polyMesh";
    object      boundary;
}
// * * * * * * * * * * * * * * * * * * * * * * * * * * * * * * * * * * * * * //

12
(
    ground
    {
        type            patch;
        nFaces          109;
        startFace       5612;
    }
    outlet
    {
        type            patch;
        nFaces          166;
        startFace       5721;
    }
    wall
    {
        type            patch;
        nFaces          0;
        startFace       5887;
    }
    wall2
    {
        type            patch;
        nFaces          444;
        startFace       5887;
    }
    wall3
    {
        type            patch;
        nFaces          0;
        startFace       6331;
    }
    internalPatch
    {
        type            internal;
        inGroups        List<word> 1(internal);
        nFaces          0;
        startFace       6331;
    }
    procBoundary6to0
    {
        type            processor;
        inGroups        List<word> 1(processor);
        nFaces          24;
        startFace       6331;
        matchTolerance  0.0001;
        myProcNo        6;
        neighbProcNo    0;
    }
    procBoundary6to1
    {
        type            processor;
        inGroups        List<word> 1(processor);
        nFaces          77;
        startFace       6355;
        matchTolerance  0.0001;
        myProcNo        6;
        neighbProcNo    1;
    }
    procBoundary6to2
    {
        type            processor;
        inGroups        List<word> 1(processor);
        nFaces          24;
        startFace       6432;
        matchTolerance  0.0001;
        myProcNo        6;
        neighbProcNo    2;
    }
    procBoundary6to4
    {
        type            processor;
        inGroups        List<word> 1(processor);
        nFaces          43;
        startFace       6456;
        matchTolerance  0.0001;
        myProcNo        6;
        neighbProcNo    4;
    }
    procBoundary6to5
    {
        type            processor;
        inGroups        List<word> 1(processor);
        nFaces          113;
        startFace       6499;
        matchTolerance  0.0001;
        myProcNo        6;
        neighbProcNo    5;
    }
    procBoundary6to7
    {
        type            processor;
        inGroups        List<word> 1(processor);
        nFaces          223;
        startFace       6612;
        matchTolerance  0.0001;
        myProcNo        6;
        neighbProcNo    7;
    }
)

// ************************************************************************* //
