/*--------------------------------*- C++ -*----------------------------------*\
  =========                 |
  \\      /  F ield         | OpenFOAM: The Open Source CFD Toolbox
   \\    /   O peration     | Website:  https://openfoam.org
    \\  /    A nd           | Version:  9
     \\/     M anipulation  |
\*---------------------------------------------------------------------------*/
FoamFile
{
    format      binary;
    class       polyBoundaryMesh;
    location    "0.00195/polyMesh";
    object      boundary;
}
// * * * * * * * * * * * * * * * * * * * * * * * * * * * * * * * * * * * * * //

7
(
    ground
    {
        type            patch;
        nFaces          694;
        startFace       80032;
    }
    outlet
    {
        type            patch;
        nFaces          545;
        startFace       80726;
    }
    walls
    {
        type            wall;
        inGroups        List<word> 1(wall);
        nFaces          1150;
        startFace       81271;
    }
    internalPatch
    {
        type            internal;
        inGroups        List<word> 1(internal);
        nFaces          0;
        startFace       82421;
    }
    procBoundary1to0
    {
        type            processor;
        inGroups        List<word> 1(processor);
        nFaces          884;
        startFace       82421;
        matchTolerance  0.0001;
        myProcNo        1;
        neighbProcNo    0;
    }
    procBoundary1to2
    {
        type            processor;
        inGroups        List<word> 1(processor);
        nFaces          288;
        startFace       83305;
        matchTolerance  0.0001;
        myProcNo        1;
        neighbProcNo    2;
    }
    procBoundary1to3
    {
        type            processor;
        inGroups        List<word> 1(processor);
        nFaces          1345;
        startFace       83593;
        matchTolerance  0.0001;
        myProcNo        1;
        neighbProcNo    3;
    }
)

// ************************************************************************* //
