/*--------------------------------*- C++ -*----------------------------------*\
  =========                 |
  \\      /  F ield         | OpenFOAM: The Open Source CFD Toolbox
   \\    /   O peration     | Website:  https://openfoam.org
    \\  /    A nd           | Version:  9
     \\/     M anipulation  |
\*---------------------------------------------------------------------------*/
FoamFile
{
    format      binary;
    class       polyBoundaryMesh;
    location    "0.0018/polyMesh";
    object      boundary;
}
// * * * * * * * * * * * * * * * * * * * * * * * * * * * * * * * * * * * * * //

7
(
    ground
    {
        type            patch;
        nFaces          1133;
        startFace       64741;
    }
    outlet
    {
        type            patch;
        nFaces          255;
        startFace       65874;
    }
    walls
    {
        type            wall;
        inGroups        List<word> 1(wall);
        nFaces          0;
        startFace       66129;
    }
    internalPatch
    {
        type            internal;
        inGroups        List<word> 1(internal);
        nFaces          0;
        startFace       66129;
    }
    procBoundary3to0
    {
        type            processor;
        inGroups        List<word> 1(processor);
        nFaces          320;
        startFace       66129;
        matchTolerance  0.0001;
        myProcNo        3;
        neighbProcNo    0;
    }
    procBoundary3to1
    {
        type            processor;
        inGroups        List<word> 1(processor);
        nFaces          1276;
        startFace       66449;
        matchTolerance  0.0001;
        myProcNo        3;
        neighbProcNo    1;
    }
    procBoundary3to2
    {
        type            processor;
        inGroups        List<word> 1(processor);
        nFaces          1868;
        startFace       67725;
        matchTolerance  0.0001;
        myProcNo        3;
        neighbProcNo    2;
    }
)

// ************************************************************************* //
