/*--------------------------------*- C++ -*----------------------------------*\
  =========                 |
  \\      /  F ield         | OpenFOAM: The Open Source CFD Toolbox
   \\    /   O peration     | Website:  https://openfoam.org
    \\  /    A nd           | Version:  9
     \\/     M anipulation  |
\*---------------------------------------------------------------------------*/
FoamFile
{
    format      ascii;
    class       polyBoundaryMesh;
    location    "0.0033/polyMesh";
    object      boundary;
}
// * * * * * * * * * * * * * * * * * * * * * * * * * * * * * * * * * * * * * //

10
(
    ground
    {
        type            patch;
        nFaces          953;
        startFace       83205;
    }
    outlet
    {
        type            patch;
        nFaces          467;
        startFace       84158;
    }
    wall
    {
        type            patch;
        nFaces          1126;
        startFace       84625;
    }
    wall2
    {
        type            patch;
        nFaces          0;
        startFace       85751;
    }
    wall3
    {
        type            patch;
        nFaces          0;
        startFace       85751;
    }
    internalPatch
    {
        type            internal;
        inGroups        List<word> 1(internal);
        nFaces          0;
        startFace       85751;
    }
    procBoundary2to0
    {
        type            processor;
        inGroups        List<word> 1(processor);
        nFaces          564;
        startFace       85751;
        matchTolerance  0.0001;
        myProcNo        2;
        neighbProcNo    0;
    }
    procBoundary2to1
    {
        type            processor;
        inGroups        List<word> 1(processor);
        nFaces          2369;
        startFace       86315;
        matchTolerance  0.0001;
        myProcNo        2;
        neighbProcNo    1;
    }
    procBoundary2to3
    {
        type            processor;
        inGroups        List<word> 1(processor);
        nFaces          1219;
        startFace       88684;
        matchTolerance  0.0001;
        myProcNo        2;
        neighbProcNo    3;
    }
    procBoundary2to5
    {
        type            processor;
        inGroups        List<word> 1(processor);
        nFaces          688;
        startFace       89903;
        matchTolerance  0.0001;
        myProcNo        2;
        neighbProcNo    5;
    }
)

// ************************************************************************* //
