/*--------------------------------*- C++ -*----------------------------------*\
  =========                 |
  \\      /  F ield         | OpenFOAM: The Open Source CFD Toolbox
   \\    /   O peration     | Website:  https://openfoam.org
    \\  /    A nd           | Version:  9
     \\/     M anipulation  |
\*---------------------------------------------------------------------------*/
FoamFile
{
    format      ascii;
    class       polyBoundaryMesh;
    location    "5e-05/polyMesh";
    object      boundary;
}
// * * * * * * * * * * * * * * * * * * * * * * * * * * * * * * * * * * * * * //

6
(
    ground
    {
        type            patch;
        nFaces          1411;
        startFace       51225;
    }
    outlet
    {
        type            patch;
        nFaces          1661;
        startFace       52636;
    }
    wall
    {
        type            patch;
        nFaces          1038;
        startFace       54297;
    }
    wall2
    {
        type            patch;
        nFaces          624;
        startFace       55335;
    }
    wall3
    {
        type            patch;
        nFaces          564;
        startFace       55959;
    }
    internalPatch
    {
        type            internal;
        inGroups        List<word> 1(internal);
        nFaces          0;
        startFace       56523;
    }
)

// ************************************************************************* //
