/*--------------------------------*- C++ -*----------------------------------*\
  =========                 |
  \\      /  F ield         | OpenFOAM: The Open Source CFD Toolbox
   \\    /   O peration     | Website:  https://openfoam.org
    \\  /    A nd           | Version:  9
     \\/     M anipulation  |
\*---------------------------------------------------------------------------*/
FoamFile
{
    format      ascii;
    class       polyBoundaryMesh;
    location    "0.0003/polyMesh";
    object      boundary;
}
// * * * * * * * * * * * * * * * * * * * * * * * * * * * * * * * * * * * * * //

9
(
    ground
    {
        type            patch;
        nFaces          301;
        startFace       6909;
    }
    outlet
    {
        type            patch;
        nFaces          187;
        startFace       7210;
    }
    wall
    {
        type            patch;
        nFaces          0;
        startFace       7397;
    }
    wall2
    {
        type            patch;
        nFaces          0;
        startFace       7397;
    }
    wall3
    {
        type            patch;
        nFaces          521;
        startFace       7397;
    }
    internalPatch
    {
        type            internal;
        inGroups        List<word> 1(internal);
        nFaces          0;
        startFace       7918;
    }
    procBoundary1to0
    {
        type            processor;
        inGroups        List<word> 1(processor);
        nFaces          120;
        startFace       7918;
        matchTolerance  0.0001;
        myProcNo        1;
        neighbProcNo    0;
    }
    procBoundary1to6
    {
        type            processor;
        inGroups        List<word> 1(processor);
        nFaces          10;
        startFace       8038;
        matchTolerance  0.0001;
        myProcNo        1;
        neighbProcNo    6;
    }
    procBoundary1to7
    {
        type            processor;
        inGroups        List<word> 1(processor);
        nFaces          79;
        startFace       8048;
        matchTolerance  0.0001;
        myProcNo        1;
        neighbProcNo    7;
    }
)

// ************************************************************************* //
