/*--------------------------------*- C++ -*----------------------------------*\
  =========                 |
  \\      /  F ield         | OpenFOAM: The Open Source CFD Toolbox
   \\    /   O peration     | Website:  https://openfoam.org
    \\  /    A nd           | Version:  9
     \\/     M anipulation  |
\*---------------------------------------------------------------------------*/
FoamFile
{
    format      ascii;
    class       polyBoundaryMesh;
    location    "constant/polyMesh";
    object      boundary;
}
// * * * * * * * * * * * * * * * * * * * * * * * * * * * * * * * * * * * * * //

9
(
    ground
    {
        type            patch;
        nFaces          205;
        startFace       4971;
    }
    outlet
    {
        type            patch;
        nFaces          150;
        startFace       5176;
    }
    wall
    {
        type            patch;
        nFaces          0;
        startFace       5326;
    }
    wall2
    {
        type            patch;
        nFaces          0;
        startFace       5326;
    }
    wall3
    {
        type            patch;
        nFaces          408;
        startFace       5326;
    }
    internalPatch
    {
        type            internal;
        inGroups        List<word> 1(internal);
        nFaces          0;
        startFace       5734;
    }
    procBoundary3to2
    {
        type            processor;
        inGroups        List<word> 1(processor);
        nFaces          254;
        startFace       5734;
        matchTolerance  0.0001;
        myProcNo        3;
        neighbProcNo    2;
    }
    procBoundary3to4
    {
        type            processor;
        inGroups        List<word> 1(processor);
        nFaces          64;
        startFace       5988;
        matchTolerance  0.0001;
        myProcNo        3;
        neighbProcNo    4;
    }
    procBoundary3to5
    {
        type            processor;
        inGroups        List<word> 1(processor);
        nFaces          35;
        startFace       6052;
        matchTolerance  0.0001;
        myProcNo        3;
        neighbProcNo    5;
    }
)

// ************************************************************************* //
