/*--------------------------------*- C++ -*----------------------------------*\
  =========                 |
  \\      /  F ield         | OpenFOAM: The Open Source CFD Toolbox
   \\    /   O peration     | Website:  https://openfoam.org
    \\  /    A nd           | Version:  9
     \\/     M anipulation  |
\*---------------------------------------------------------------------------*/
FoamFile
{
    format      ascii;
    class       polyBoundaryMesh;
    location    "0.0006/polyMesh";
    object      boundary;
}
// * * * * * * * * * * * * * * * * * * * * * * * * * * * * * * * * * * * * * //

11
(
    ground
    {
        type            patch;
        nFaces          397;
        startFace       18811;
    }
    outlet
    {
        type            patch;
        nFaces          45;
        startFace       19208;
    }
    wall
    {
        type            patch;
        nFaces          270;
        startFace       19253;
    }
    wall2
    {
        type            patch;
        nFaces          156;
        startFace       19523;
    }
    wall3
    {
        type            patch;
        nFaces          530;
        startFace       19679;
    }
    internalPatch
    {
        type            internal;
        inGroups        List<word> 1(internal);
        nFaces          0;
        startFace       20209;
    }
    procBoundary2to0
    {
        type            processor;
        inGroups        List<word> 1(processor);
        nFaces          407;
        startFace       20209;
        matchTolerance  0.0001;
        myProcNo        2;
        neighbProcNo    0;
    }
    procBoundary2to1
    {
        type            processor;
        inGroups        List<word> 1(processor);
        nFaces          370;
        startFace       20616;
        matchTolerance  0.0001;
        myProcNo        2;
        neighbProcNo    1;
    }
    procBoundary2to3
    {
        type            processor;
        inGroups        List<word> 1(processor);
        nFaces          29;
        startFace       20986;
        matchTolerance  0.0001;
        myProcNo        2;
        neighbProcNo    3;
    }
    procBoundary2to4
    {
        type            processor;
        inGroups        List<word> 1(processor);
        nFaces          272;
        startFace       21015;
        matchTolerance  0.0001;
        myProcNo        2;
        neighbProcNo    4;
    }
    procBoundary2to5
    {
        type            processor;
        inGroups        List<word> 1(processor);
        nFaces          144;
        startFace       21287;
        matchTolerance  0.0001;
        myProcNo        2;
        neighbProcNo    5;
    }
)

// ************************************************************************* //
