/*--------------------------------*- C++ -*----------------------------------*\
  =========                 |
  \\      /  F ield         | OpenFOAM: The Open Source CFD Toolbox
   \\    /   O peration     | Website:  https://openfoam.org
    \\  /    A nd           | Version:  9
     \\/     M anipulation  |
\*---------------------------------------------------------------------------*/
FoamFile
{
    format      ascii;
    class       polyBoundaryMesh;
    location    "0.00275/polyMesh";
    object      boundary;
}
// * * * * * * * * * * * * * * * * * * * * * * * * * * * * * * * * * * * * * //

9
(
    ground
    {
        type            patch;
        nFaces          1428;
        startFace       76201;
    }
    outlet
    {
        type            patch;
        nFaces          476;
        startFace       77629;
    }
    wall
    {
        type            patch;
        nFaces          0;
        startFace       78105;
    }
    wall2
    {
        type            patch;
        nFaces          0;
        startFace       78105;
    }
    wall3
    {
        type            patch;
        nFaces          0;
        startFace       78105;
    }
    internalPatch
    {
        type            internal;
        inGroups        List<word> 1(internal);
        nFaces          0;
        startFace       78105;
    }
    procBoundary4to0
    {
        type            processor;
        inGroups        List<word> 1(processor);
        nFaces          243;
        startFace       78105;
        matchTolerance  0.0001;
        myProcNo        4;
        neighbProcNo    0;
    }
    procBoundary4to3
    {
        type            processor;
        inGroups        List<word> 1(processor);
        nFaces          915;
        startFace       78348;
        matchTolerance  0.0001;
        myProcNo        4;
        neighbProcNo    3;
    }
    procBoundary4to5
    {
        type            processor;
        inGroups        List<word> 1(processor);
        nFaces          1265;
        startFace       79263;
        matchTolerance  0.0001;
        myProcNo        4;
        neighbProcNo    5;
    }
)

// ************************************************************************* //
