/*--------------------------------*- C++ -*----------------------------------*\
  =========                 |
  \\      /  F ield         | OpenFOAM: The Open Source CFD Toolbox
   \\    /   O peration     | Website:  https://openfoam.org
    \\  /    A nd           | Version:  9
     \\/     M anipulation  |
\*---------------------------------------------------------------------------*/
FoamFile
{
    format      ascii;
    class       polyBoundaryMesh;
    location    "0.0009/polyMesh";
    object      boundary;
}
// * * * * * * * * * * * * * * * * * * * * * * * * * * * * * * * * * * * * * //

10
(
    ground
    {
        type            patch;
        nFaces          480;
        startFace       23433;
    }
    outlet
    {
        type            patch;
        nFaces          0;
        startFace       23913;
    }
    wall
    {
        type            patch;
        nFaces          0;
        startFace       23913;
    }
    wall2
    {
        type            patch;
        nFaces          0;
        startFace       23913;
    }
    wall3
    {
        type            patch;
        nFaces          0;
        startFace       23913;
    }
    internalPatch
    {
        type            internal;
        inGroups        List<word> 1(internal);
        nFaces          0;
        startFace       23913;
    }
    procBoundary5to0
    {
        type            processor;
        inGroups        List<word> 1(processor);
        nFaces          551;
        startFace       23913;
        matchTolerance  0.0001;
        myProcNo        5;
        neighbProcNo    0;
    }
    procBoundary5to1
    {
        type            processor;
        inGroups        List<word> 1(processor);
        nFaces          384;
        startFace       24464;
        matchTolerance  0.0001;
        myProcNo        5;
        neighbProcNo    1;
    }
    procBoundary5to3
    {
        type            processor;
        inGroups        List<word> 1(processor);
        nFaces          711;
        startFace       24848;
        matchTolerance  0.0001;
        myProcNo        5;
        neighbProcNo    3;
    }
    procBoundary5to4
    {
        type            processor;
        inGroups        List<word> 1(processor);
        nFaces          568;
        startFace       25559;
        matchTolerance  0.0001;
        myProcNo        5;
        neighbProcNo    4;
    }
)

// ************************************************************************* //
