/*--------------------------------*- C++ -*----------------------------------*\
  =========                 |
  \\      /  F ield         | OpenFOAM: The Open Source CFD Toolbox
   \\    /   O peration     | Website:  https://openfoam.org
    \\  /    A nd           | Version:  9
     \\/     M anipulation  |
\*---------------------------------------------------------------------------*/
FoamFile
{
    format      ascii;
    class       polyBoundaryMesh;
    location    "0.00215/polyMesh";
    object      boundary;
}
// * * * * * * * * * * * * * * * * * * * * * * * * * * * * * * * * * * * * * //

6
(
    ground
    {
        type            patch;
        nFaces          3009;
        startFace       184142;
    }
    outlet
    {
        type            patch;
        nFaces          3497;
        startFace       187151;
    }
    wall
    {
        type            patch;
        nFaces          632;
        startFace       190648;
    }
    wall2
    {
        type            patch;
        nFaces          673;
        startFace       191280;
    }
    wall3
    {
        type            patch;
        nFaces          1167;
        startFace       191953;
    }
    internalPatch
    {
        type            internal;
        inGroups        List<word> 1(internal);
        nFaces          0;
        startFace       193120;
    }
)

// ************************************************************************* //
