/*--------------------------------*- C++ -*----------------------------------*\
  =========                 |
  \\      /  F ield         | OpenFOAM: The Open Source CFD Toolbox
   \\    /   O peration     | Website:  https://openfoam.org
    \\  /    A nd           | Version:  9
     \\/     M anipulation  |
\*---------------------------------------------------------------------------*/
FoamFile
{
    format      ascii;
    class       polyBoundaryMesh;
    location    "0.00015/polyMesh";
    object      boundary;
}
// * * * * * * * * * * * * * * * * * * * * * * * * * * * * * * * * * * * * * //

6
(
    ground
    {
        type            patch;
        nFaces          1588;
        startFace       57627;
    }
    outlet
    {
        type            patch;
        nFaces          1661;
        startFace       59215;
    }
    wall
    {
        type            patch;
        nFaces          1038;
        startFace       60876;
    }
    wall2
    {
        type            patch;
        nFaces          624;
        startFace       61914;
    }
    wall3
    {
        type            patch;
        nFaces          564;
        startFace       62538;
    }
    internalPatch
    {
        type            internal;
        inGroups        List<word> 1(internal);
        nFaces          0;
        startFace       63102;
    }
)

// ************************************************************************* //
