/*--------------------------------*- C++ -*----------------------------------*\
  =========                 |
  \\      /  F ield         | OpenFOAM: The Open Source CFD Toolbox
   \\    /   O peration     | Website:  https://openfoam.org
    \\  /    A nd           | Version:  9
     \\/     M anipulation  |
\*---------------------------------------------------------------------------*/
FoamFile
{
    format      ascii;
    class       vectorField;
    location    "0/polyMesh";
    object      points0;
}
// * * * * * * * * * * * * * * * * * * * * * * * * * * * * * * * * * * * * * //


165
(
(-0.239264 -1 0.629274)
(-0.115035 -1 0.627562)
(-0.103393 -0.896717 0.628636)
(-0.237216 -0.892459 0.629933)
(-0.117476 -1 0.755424)
(-0.103807 -0.896271 0.759235)
(0 -1 0.748323)
(0 -0.883079 0.755472)
(0 -0.759339 0.759456)
(-0.106751 -0.761879 0.761676)
(0 -0.760942 0.629404)
(-0.107569 -0.762807 0.630028)
(0 -0.630111 0.630115)
(-0.108676 -0.630689 0.630686)
(0 -0.500056 0.630236)
(-0.108862 -0.500048 0.630864)
(-0.235607 -0.50004 0.631224)
(-0.235612 -0.631104 0.631089)
(-0.23686 -0.500021 0.500048)
(-0.235609 -0.631204 0.500032)
(-0.237004 -0.763042 0.630669)
(-0.236852 -0.76313 0.499983)
(-0.238557 -0.500061 1)
(-0.236834 -0.500055 0.892324)
(-0.102974 -0.500008 0.896786)
(-0.114482 -0.500044 1)
(-0.236819 -0.500048 0.763139)
(-0.107615 -0.500046 0.763176)
(0 -0.500029 0.761166)
(0 -0.499868 0.885439)
(0 -0.5 1)
(-0.369119 -0.500052 0.891124)
(-0.368789 -0.500044 0.764374)
(-0.36968 -0.500059 1)
(-0.141367 0 1)
(-0.123331 0 0.876027)
(-0.103675 -0.104472 0.895655)
(-0.122304 -0.123614 1)
(-0.244322 0 0.883123)
(-0.240448 -0.103851 0.896454)
(-0.237012 -0.370089 0.892399)
(-0.236883 -0.369375 0.763012)
(-0.238724 -0.370845 1)
(-0.240182 -0.24099 1)
(-0.23804 -0.238336 0.893204)
(-0.244104 -0.117108 1)
(-0.237335 -0.237535 0.76254)
(0 -0.500035 0.500072)
(-0.109178 -0.500033 0.500064)
(0 -0.63027 0.500097)
(-0.108865 -0.630849 0.500069)
(-0.107645 -0.763075 0.500057)
(0 -1 0.5)
(-0.238779 -1 0.499942)
(0 -0.761282 0.500101)
(-0.1145 -1 0.500086)
(0 -0.885321 0.500068)
(0 -1 0.625)
(-0.236849 -0.892362 0.499932)
(0 -0.884869 0.627661)
(-0.103166 -0.896867 0.500025)
(0 0 0.5)
(-0.238703 0 0.500098)
(0 0 1)
(0 0 0.748323)
(-0.240393 0 0.759525)
(0 -0.238881 0.500035)
(0 -0.251677 1)
(-0.23684 -0.236913 0.500079)
(0 -0.240808 0.759123)
(-0.108668 -0.369412 0.630651)
(-0.103193 -0.103389 0.628745)
(-0.102956 -0.371405 0.896587)
(-0.114463 0 0.500034)
(0 0 0.625)
(0 -0.114957 0.500036)
(-0.238965 0 0.629445)
(-0.236818 -0.107645 0.500104)
(0 0 0.858633)
(0 -0.141367 1)
(-0.116747 0 0.755452)
(0 -0.116839 0.755372)
(-0.238145 -0.106792 0.761803)
(0 -0.369824 0.500047)
(0 -0.375 1)
(-0.236929 -0.237026 0.630734)
(-0.10665 -0.238258 0.761705)
(-0.235603 -0.368842 0.500056)
(-0.107641 -0.237029 0.500052)
(0 -0.239279 0.629231)
(0 -0.370785 0.760694)
(0 -0.244581 0.882959)
(-0.116135 -0.244862 1)
(-0.235586 -0.368971 0.631105)
(0 -0.370048 0.629979)
(-0.108864 -0.369224 0.500052)
(-0.103141 -0.103255 0.500065)
(-0.107535 -0.237223 0.629976)
(-0.107501 -0.37008 0.76285)
(-0.237132 -0.10758 0.630088)
(-0.103373 -0.103808 0.759421)
(0 -0.114995 0.627715)
(-0.115048 0 0.627736)
(-0.103204 -0.240703 0.896141)
(0 -0.372375 0.884958)
(-0.114502 -0.37249 1)
(0 -0.122901 0.87674)
(-0.251677 0 1)
(-0.369238 -0.369431 0.89131)
(-0.371186 -0.103458 0.896785)
(-0.375 0 1)
(-0.369251 -0.237037 0.76306)
(-0.370473 -0.23936 1)
(-0.368874 -0.368983 0.764382)
(-0.369778 -0.37008 1)
(-0.369865 -0.237237 0.892429)
(-0.372101 -0.115076 1)
(-0.372211 0 0.884959)
(0 -0.625 1)
(0 -0.627695 0.884869)
(0 -0.629364 0.760923)
(-0.370774 -0.760905 1)
(-0.240719 -0.759353 1)
(-0.1167 -0.755637 1)
(-0.114826 -0.627825 1)
(-0.103293 -0.628759 0.896738)
(-0.107544 -0.63006 0.762784)
(-0.500073 -0.763054 0.892353)
(-0.370036 -0.762785 0.892439)
(-0.238189 -0.761844 0.893253)
(-0.103745 -0.759505 0.896486)
(-0.500054 -0.763131 0.763144)
(-0.369357 -0.763032 0.763014)
(-0.237513 -0.762581 0.762513)
(-0.50003 -0.764365 0.631187)
(-0.368953 -0.764381 0.631049)
(0 -1 1)
(0 -0.748323 1)
(-0.240881 -1 0.759315)
(-0.104432 -0.895745 0.895878)
(0 -1 0.858633)
(-0.141367 -1 1)
(0 -0.858633 1)
(-0.238451 -0.893255 0.761647)
(-0.244746 -1 0.882997)
(0 -0.755445 0.883117)
(-0.123595 -1 0.876649)
(-0.240607 -0.89629 0.896384)
(0 -0.876322 0.87616)
(-0.122961 -0.877222 1)
(-0.500012 -0.499995 0.500014)
(-0.500042 -0.50004 1)
(-0.50001 -0.76311 0.499958)
(-0.500038 -0.500032 0.763125)
(-0.369351 -0.630677 0.891318)
(-0.500043 -0.50004 0.890815)
(-0.500081 -0.630248 1)
(-0.236968 -0.630734 0.763021)
(-0.368806 -0.764365 0.499944)
(-0.500056 -0.6312 0.764376)
(-0.239134 -0.629348 1)
(-0.500071 -0.630838 0.89113)
(-0.368936 -0.631103 0.764377)
(-0.237109 -0.630045 0.892449)
(-0.369979 -0.630077 1)
)


// ************************************************************************* //
