/*--------------------------------*- C++ -*----------------------------------*\
  =========                 |
  \\      /  F ield         | OpenFOAM: The Open Source CFD Toolbox
   \\    /   O peration     | Website:  https://openfoam.org
    \\  /    A nd           | Version:  9
     \\/     M anipulation  |
\*---------------------------------------------------------------------------*/
FoamFile
{
    format      ascii;
    class       polyBoundaryMesh;
    location    "constant/polyMesh";
    object      boundary;
}
// * * * * * * * * * * * * * * * * * * * * * * * * * * * * * * * * * * * * * //

6
(
    cylinder
    {
        type            patch;
        nFaces          59;
        startFace       180;
    }
    internalPatch
    {
        type            internal;
        inGroups        List<word> 1(internal);
        nFaces          0;
        startFace       239;
    }
    procBoundary5to1
    {
        type            processor;
        inGroups        List<word> 1(processor);
        nFaces          17;
        startFace       239;
        matchTolerance  0.0001;
        myProcNo        5;
        neighbProcNo    1;
    }
    procBoundary5to2
    {
        type            processor;
        inGroups        List<word> 1(processor);
        nFaces          1;
        startFace       256;
        matchTolerance  0.0001;
        myProcNo        5;
        neighbProcNo    2;
    }
    procBoundary5to3
    {
        type            processor;
        inGroups        List<word> 1(processor);
        nFaces          13;
        startFace       257;
        matchTolerance  0.0001;
        myProcNo        5;
        neighbProcNo    3;
    }
    procBoundary5to4
    {
        type            processor;
        inGroups        List<word> 1(processor);
        nFaces          24;
        startFace       270;
        matchTolerance  0.0001;
        myProcNo        5;
        neighbProcNo    4;
    }
)

// ************************************************************************* //
