/*--------------------------------*- C++ -*----------------------------------*\
  =========                 |
  \\      /  F ield         | OpenFOAM: The Open Source CFD Toolbox
   \\    /   O peration     | Website:  https://openfoam.org
    \\  /    A nd           | Version:  9
     \\/     M anipulation  |
\*---------------------------------------------------------------------------*/
FoamFile
{
    format      ascii;
    class       polyBoundaryMesh;
    location    "0/polyMesh";
    object      boundary;
}
// * * * * * * * * * * * * * * * * * * * * * * * * * * * * * * * * * * * * * //

6
(
    ground
    {
        type            patch;
        nFaces          1285;
        startFace       47889;
    }
    outlet
    {
        type            patch;
        nFaces          1661;
        startFace       49174;
    }
    wall
    {
        type            patch;
        nFaces          1038;
        startFace       50835;
    }
    wall2
    {
        type            patch;
        nFaces          624;
        startFace       51873;
    }
    wall3
    {
        type            patch;
        nFaces          564;
        startFace       52497;
    }
    internalPatch
    {
        type            internal;
        inGroups        List<word> 1(internal);
        nFaces          0;
        startFace       53061;
    }
)

// ************************************************************************* //
