/*--------------------------------*- C++ -*----------------------------------*\
  =========                 |
  \\      /  F ield         | OpenFOAM: The Open Source CFD Toolbox
   \\    /   O peration     | Website:  https://openfoam.org
    \\  /    A nd           | Version:  9
     \\/     M anipulation  |
\*---------------------------------------------------------------------------*/
FoamFile
{
    format      ascii;
    class       extendedFeatureEdgeMesh;
    location    "constant/extendedFeatureEdgeMesh";
    object      L_Wall.extendedFeatureEdgeMesh;
}
// * * * * * * * * * * * * * * * * * * * * * * * * * * * * * * * * * * * * * //

// points

12
(
(-500 2000 0)
(-500 2000 2000)
(2000 -500 0)
(2500 -500 0)
(2000 -500 2000)
(2500 -500 2000)
(2500 2500 0)
(2500 2500 2000)
(-500 2500 0)
(-500 2500 2000)
(2000 2000 0)
(2000 2000 2000)
)

// edges

18
(
(1 0)
(0 10)
(11 1)
(4 2)
(2 3)
(3 5)
(5 4)
(10 2)
(4 11)
(3 6)
(6 7)
(7 5)
(6 8)
(8 9)
(9 7)
(8 0)
(1 9)
(10 11)
)

// concaveStart mixedStart nonFeatureStart
10 10 12
// internalStart flatStart openStart multipleStart
17 18 18 18
// normals

20
(
(0 -1 0)
(-1 -0 0)
(0 0 -1)
(0 -1 0)
(0 0 1)
(0 -1 0)
(-1 -0 0)
(0 0 -1)
(0 -1 0)
(1 0 0)
(0 0 1)
(-1 0 0)
(0 0 -1)
(1 -0 0)
(0 1 -0)
(0 0 1)
(0 0 -1)
(0 1 0)
(-1 0 0)
(0 0 1)
)

// normal volume types

20
(
0
0
0
0
0
0
0
0
0
0
0
0
0
0
0
0
0
0
0
0
)

// normalDirections

18
(
2(1 -1)
2(1 -1)
2(1 -1)
2(1 -1)
2(1 -1)
2(1 -1)
2(1 -1)
2(1 -1)
2(1 -1)
2(1 -1)
2(1 -1)
2(1 -1)
2(1 -1)
2(1 -1)
2(1 -1)
2(1 -1)
2(1 -1)
2(1 -1)
)

// edgeNormals

18
(
2(0 1)
2(0 2)
2(3 4)
2(5 6)
2(5 7)
2(8 9)
2(8 10)
2(11 7)
2(6 10)
2(9 12)
2(13 14)
2(13 15)
2(14 16)
2(17 18)
2(17 19)
2(18 2)
2(1 4)
2(3 11)
)

// featurePointNormals

12
(
3(0 1 2)
3(0 1 4)
3(5 6 7)
3(5 7 9)
3(5 6 10)
3(8 9 10)
3(9 12 14)
3(13 14 15)
3(14 16 18)
3(17 18 19)
3(0 2 11)
3(3 4 6)
)

// featurePointEdges

12
(
3(0 15 1)
3(2 16 0)
3(3 7 4)
3(5 9 4)
3(6 8 3)
3(5 11 6)
3(10 12 9)
3(10 14 11)
3(13 15 12)
3(13 16 14)
3(17 7 1)
3(17 8 2)
)

// regionEdges
0()


// ************************************************************************* //
