/*--------------------------------*- C++ -*----------------------------------*\
  =========                 |
  \\      /  F ield         | OpenFOAM: The Open Source CFD Toolbox
   \\    /   O peration     | Website:  https://openfoam.org
    \\  /    A nd           | Version:  9
     \\/     M anipulation  |
\*---------------------------------------------------------------------------*/
FoamFile
{
    format      ascii;
    class       polyBoundaryMesh;
    location    "constant/polyMesh";
    object      boundary;
}
// * * * * * * * * * * * * * * * * * * * * * * * * * * * * * * * * * * * * * //

10
(
    ground
    {
        type            patch;
        nFaces          212;
        startFace       8846;
    }
    outlet
    {
        type            patch;
        nFaces          137;
        startFace       9058;
    }
    wall
    {
        type            patch;
        nFaces          0;
        startFace       9195;
    }
    wall2
    {
        type            patch;
        nFaces          598;
        startFace       9195;
    }
    wall3
    {
        type            patch;
        nFaces          0;
        startFace       9793;
    }
    internalPatch
    {
        type            internal;
        inGroups        List<word> 1(internal);
        nFaces          0;
        startFace       9793;
    }
    procBoundary5to0
    {
        type            processor;
        inGroups        List<word> 1(processor);
        nFaces          167;
        startFace       9793;
        matchTolerance  0.0001;
        myProcNo        5;
        neighbProcNo    0;
    }
    procBoundary5to1
    {
        type            processor;
        inGroups        List<word> 1(processor);
        nFaces          46;
        startFace       9960;
        matchTolerance  0.0001;
        myProcNo        5;
        neighbProcNo    1;
    }
    procBoundary5to3
    {
        type            processor;
        inGroups        List<word> 1(processor);
        nFaces          105;
        startFace       10006;
        matchTolerance  0.0001;
        myProcNo        5;
        neighbProcNo    3;
    }
    procBoundary5to4
    {
        type            processor;
        inGroups        List<word> 1(processor);
        nFaces          273;
        startFace       10111;
        matchTolerance  0.0001;
        myProcNo        5;
        neighbProcNo    4;
    }
)

// ************************************************************************* //
