/*--------------------------------*- C++ -*----------------------------------*\
  =========                 |
  \\      /  F ield         | OpenFOAM: The Open Source CFD Toolbox
   \\    /   O peration     | Website:  https://openfoam.org
    \\  /    A nd           | Version:  9
     \\/     M anipulation  |
\*---------------------------------------------------------------------------*/
FoamFile
{
    format      ascii;
    class       vectorField;
    location    "0/polyMesh";
    object      points0;
}
// * * * * * * * * * * * * * * * * * * * * * * * * * * * * * * * * * * * * * //


157
(
(-0.251677 0 0)
(-0.24065 0 0.240976)
(-0.5 0 0)
(-0.500055 0 0.238946)
(-0.748323 0 0)
(-0.759699 0 0.240974)
(-1 0 0)
(-1 0 0.251677)
(-0.238703 0 0.500098)
(-0.500098 0 0.500104)
(-0.761813 0 0.500111)
(-1 0 0.5)
(-0.499933 -0.499877 0)
(-0.500012 -0.499995 0.500014)
(-0.76261 -0.237463 0.237533)
(-0.237341 -0.237473 0.237604)
(-0.761498 -0.499883 0)
(-1 -0.251677 0)
(-0.238156 -0.499867 0)
(-0.499906 -0.23859 0)
(-0.499944 -0.499907 0.236886)
(-0.763152 -0.50002 0.500002)
(-1 -0.238965 0.499988)
(-0.23686 -0.500021 0.500048)
(-0.500074 -0.236886 0.500077)
(-0.763186 -0.499948 0.236889)
(-0.23669 -0.499937 0.236925)
(-1 -0.240775 0.240785)
(-0.499989 -0.236832 0.236938)
(-0.763299 -0.236907 0.500037)
(-0.23684 -0.236913 0.500079)
(-0.759347 -0.240505 0)
(-0.240167 -0.240641 0)
(-0.896702 -0.3713 0.103433)
(-0.369122 -0.369267 0.108701)
(-0.630659 -0.369246 0.108688)
(-0.895889 -0.104108 0.104493)
(-0.628679 -0.103259 0.103477)
(-0.89133 -0.369419 0.369405)
(-0.89705 -0.103367 0.371423)
(-0.630852 -0.108684 0.369477)
(-0.371259 -0.103219 0.103477)
(-0.369385 -0.108683 0.369466)
(-0.244446 0 0.117582)
(-0.375 0 0)
(-0.244177 -0.116861 0)
(-0.370715 0 0.239357)
(-0.23914 0 0.370858)
(-0.238128 -0.106726 0.238555)
(-0.499926 0 0.114614)
(-0.625 0 0)
(-0.499918 -0.114605 0)
(-0.629493 0 0.239362)
(-0.500095 0 0.369891)
(-0.500052 -0.107639 0.23694)
(-0.755642 0 0.117149)
(-0.858633 0 0)
(-0.755467 -0.116972 0)
(-0.883573 0 0.244865)
(-0.761381 0 0.370857)
(-0.761904 -0.106754 0.23833)
(-1 0 0.141367)
(-1 -0.141367 0)
(-1 0 0.375)
(-1 -0.116809 0.244541)
(-0.369755 0 0.500106)
(-0.236818 -0.107645 0.500104)
(-0.630524 0 0.500109)
(-0.500101 -0.109186 0.500102)
(-0.88593 0 0.500077)
(-0.763464 -0.107664 0.500081)
(-1 -0.114596 0.499994)
(-1 -0.375 0)
(-0.630342 -0.499878 0)
(-0.369471 -0.499869 0)
(-0.499911 -0.369634 0)
(-0.499925 -0.49988 0.109187)
(-0.890823 -0.500047 0.499998)
(-1 -0.369905 0.49999)
(-0.763068 -0.369288 0.237036)
(-0.893289 -0.23829 0.238251)
(-0.630728 -0.236935 0.237067)
(-0.763161 -0.237008 0.369377)
(-0.761695 -0.238223 0.106796)
(-0.236815 -0.369295 0.237066)
(-0.369243 -0.236956 0.237069)
(-0.236957 -0.237007 0.369425)
(-0.238009 -0.238162 0.106819)
(-0.763205 -0.499904 0.107681)
(-0.760946 -0.370579 0)
(-1 -0.244352 0.116791)
(-0.882749 -0.244344 0)
(-0.892362 -0.500011 0.236894)
(-1 -0.370799 0.239288)
(-0.236512 -0.49989 0.107676)
(-0.238558 -0.370605 0)
(-0.499918 -0.236868 0.107703)
(-0.629302 -0.239004 0)
(-0.370444 -0.239001 0)
(-0.631209 -0.499905 0.235639)
(-0.368653 -0.499911 0.235647)
(-0.499938 -0.368741 0.235659)
(-0.764406 -0.500001 0.368836)
(-0.764433 -0.368854 0.500005)
(-1 -0.239323 0.370765)
(-0.892388 -0.236953 0.499996)
(-0.235574 -0.499993 0.368863)
(-0.235603 -0.368842 0.500056)
(-0.500061 -0.235628 0.36889)
(-0.631343 -0.235643 0.500072)
(-0.368819 -0.235646 0.500085)
(-1 -0.372401 0.115365)
(-0.762908 -0.369935 0.107557)
(-0.896374 -0.240438 0.103795)
(-0.892454 -0.370045 0.237322)
(-0.368932 -0.499882 0.108879)
(-0.499909 -0.369074 0.108885)
(-0.236829 -0.369931 0.107594)
(-0.369823 -0.237185 0.107621)
(-0.368787 -0.368871 0.235665)
(-0.891142 -0.369249 0.499993)
(-0.630883 -0.49988 0.108878)
(-0.891136 -0.50003 0.369205)
(-1 -0.122856 0.12301)
(-1 -0.370086 0.370025)
(-1 -0.115011 0.372407)
(-0.629966 -0.237054 0.107575)
(-0.631078 -0.368859 0.235655)
(-0.759319 -0.103537 0.1039)
(-0.896639 -0.103731 0.240696)
(-0.876823 0 0.123631)
(-0.630127 -0.107565 0.237392)
(-0.49994 -0.103045 0.103277)
(-0.627729 0 0.115477)
(-0.764431 -0.368955 0.368963)
(-0.892477 -0.237236 0.370055)
(-0.631198 -0.235624 0.369013)
(-0.763125 -0.107568 0.370114)
(-0.897217 -0.103213 0.500047)
(-0.885522 0 0.372501)
(-0.500095 -0.108872 0.369269)
(-0.631064 -0.108875 0.5001)
(-0.630303 0 0.370094)
(-0.240518 -0.103683 0.103936)
(-0.370016 -0.107547 0.23726)
(-0.372421 0 0.115098)
(-0.235573 -0.368941 0.369006)
(-0.368938 -0.235629 0.369019)
(-0.237226 -0.107569 0.370157)
(-0.369172 -0.108874 0.500105)
(-0.369975 0 0.370099)
(-0.885082 -0.372289 0)
(-0.369666 -0.369835 0)
(-0.875949 -0.123353 0)
(-0.627619 -0.114822 0)
(-0.630076 -0.369838 0)
(-0.372225 -0.115077 0)
)


// ************************************************************************* //
