/*--------------------------------*- C++ -*----------------------------------*\
  =========                 |
  \\      /  F ield         | OpenFOAM: The Open Source CFD Toolbox
   \\    /   O peration     | Website:  https://openfoam.org
    \\  /    A nd           | Version:  9
     \\/     M anipulation  |
\*---------------------------------------------------------------------------*/
FoamFile
{
    format      ascii;
    class       polyBoundaryMesh;
    location    "constant/polyMesh";
    object      boundary;
}
// * * * * * * * * * * * * * * * * * * * * * * * * * * * * * * * * * * * * * //

10
(
    ground
    {
        type            patch;
        nFaces          183;
        startFace       8687;
    }
    outlet
    {
        type            patch;
        nFaces          371;
        startFace       8870;
    }
    wall
    {
        type            patch;
        nFaces          0;
        startFace       9241;
    }
    wall2
    {
        type            patch;
        nFaces          612;
        startFace       9241;
    }
    wall3
    {
        type            patch;
        nFaces          0;
        startFace       9853;
    }
    internalPatch
    {
        type            internal;
        inGroups        List<word> 1(internal);
        nFaces          0;
        startFace       9853;
    }
    procBoundary4to0
    {
        type            processor;
        inGroups        List<word> 1(processor);
        nFaces          6;
        startFace       9853;
        matchTolerance  0.0001;
        myProcNo        4;
        neighbProcNo    0;
    }
    procBoundary4to2
    {
        type            processor;
        inGroups        List<word> 1(processor);
        nFaces          52;
        startFace       9859;
        matchTolerance  0.0001;
        myProcNo        4;
        neighbProcNo    2;
    }
    procBoundary4to3
    {
        type            processor;
        inGroups        List<word> 1(processor);
        nFaces          230;
        startFace       9911;
        matchTolerance  0.0001;
        myProcNo        4;
        neighbProcNo    3;
    }
    procBoundary4to5
    {
        type            processor;
        inGroups        List<word> 1(processor);
        nFaces          273;
        startFace       10141;
        matchTolerance  0.0001;
        myProcNo        4;
        neighbProcNo    5;
    }
)

// ************************************************************************* //
